@<TRIPOS>MOLECULE
*****
 41 44 0 0 0
SMALL
GASTEIGER

@<TRIPOS>ATOM
      1 O           3.0000    0.0000    0.0000 O.2     1  UNL1       -0.2749
      2 C           1.5000    0.0000    0.0000 C.2     1  UNL1        0.2255
      3 N           0.7500   -1.2990    0.0000 N.am    1  UNL1       -0.2827
      4 C          -0.7500   -1.2990    0.0000 C.3     1  UNL1        0.0933
      5 C          -1.5000    0.0000    0.0000 C.3     1  UNL1        0.0220
      6 C          -0.7500    1.2990    0.0000 C.3     1  UNL1        0.0113
      7 C           0.7500    1.2990    0.0000 C.3     1  UNL1        0.0853
      8 C           1.5000   -2.5981    0.0000 C.3     1  UNL1        0.0603
      9 C           0.2010   -3.3481    0.0000 C.3     1  UNL1        0.0199
     10 C           2.7990   -1.8481    0.0000 C.3     1  UNL1        0.0199
     11 C           2.2500   -3.8971    0.0000 C.3     1  UNL1        0.0172
     12 C           1.5000   -5.1962    0.0000 C.3     1  UNL1        0.0107
     13 C           2.2500   -6.4952    0.0000 C.3     1  UNL1        0.0783
     14 C           3.7500   -6.4952    0.0000 C.3     1  UNL1        0.0091
     15 C           4.5000   -5.1962    0.0000 C.3     1  UNL1        0.0005
     16 C           3.7500   -3.8971    0.0000 C.3     1  UNL1        0.0016
     17 C           1.5000   -7.7942    0.0000 C.2     1  UNL1        0.2409
     18 O           2.2500   -9.0933    0.0000 O.2     1  UNL1       -0.2734
     19 N          -0.0000   -7.7942    0.0000 N.am    1  UNL1       -0.2040
     20 C          -0.7500   -9.0933    0.0000 C.3     1  UNL1        0.1361
     21 C          -0.0000  -10.3923    0.0000 C.3     1  UNL1        0.2342
     22 O           1.5000  -10.3923    0.0000 O.3     1  UNL1       -0.2146
     23 C          -0.7500  -11.6913    0.0000 C.3     1  UNL1        0.2361
     24 N          -0.0000  -12.9904    0.0000 N.4     1  UNL1        0.4541
     25 C          -0.7500  -14.2894    0.0000 C.3     1  UNL1        0.2285
     26 C          -0.0000  -15.5885    0.0000 C.ar    1  UNL1        0.0399
     27 C          -0.7500  -16.8875    0.0000 C.ar    1  UNL1       -0.0026
     28 C          -0.0000  -18.1865    0.0000 C.ar    1  UNL1       -0.0226
     29 C           1.5000  -18.1865    0.0000 C.ar    1  UNL1       -0.0043
     30 C           2.2500  -16.8875    0.0000 C.ar    1  UNL1       -0.0004
     31 C           1.5000  -15.5885    0.0000 C.ar    1  UNL1        0.0016
     32 C          -0.7500  -19.4856    0.0000 C.3     1  UNL1        0.0223
     33 C          -2.2500  -19.4856    0.0000 C.3     1  UNL1        0.0047
     34 C          -0.0000  -20.7846    0.0000 C.3     1  UNL1        0.0047
     35 C          -2.2500   -9.0933    0.0000 C.3     1  UNL1        0.0508
     36 C          -3.0000  -10.3923    0.0000 C.ar    1  UNL1       -0.0204
     37 C          -4.5000  -10.3923    0.0000 C.ar    1  UNL1       -0.0042
     38 C          -5.2500  -11.6913    0.0000 C.ar    1  UNL1       -0.0003
     39 C          -4.5000  -12.9904    0.0000 C.ar    1  UNL1       -0.0000
     40 C          -3.0000  -12.9904    0.0000 C.ar    1  UNL1       -0.0003
     41 C          -2.2500  -11.6913    0.0000 C.ar    1  UNL1       -0.0042
@<TRIPOS>UNITY_ATOM_ATTR
24 1
charge 1
@<TRIPOS>BOND
     1     1     2    2
     2     2     3   am
     3     3     4    1
     4     4     5    1
     5     5     6    1
     6     6     7    1
     7     3     8    1
     8     8     9    1
     9     8    10    1
    10    11     8    1
    11    11    12    1
    12    12    13    1
    13    13    14    1
    14    14    15    1
    15    15    16    1
    16    13    17    1
    17    17    18    2
    18    17    19   am
    19    19    20    1
    20    20    21    1
    21    21    22    1
    22    21    23    1
    23    23    24    1
    24    24    25    1
    25    25    26    1
    26    26    27   ar
    27    27    28   ar
    28    28    29   ar
    29    29    30   ar
    30    30    31   ar
    31    28    32    1
    32    32    33    1
    33    32    34    1
    34    20    35    1
    35    35    36    1
    36    36    37   ar
    37    37    38   ar
    38    38    39   ar
    39    39    40   ar
    40    40    41   ar
    41     7     2    1
    42    16    11    1
    43    31    26   ar
    44    41    36   ar
