@<TRIPOS>MOLECULE
*****
 45 48 0 0 0
SMALL
GASTEIGER

@<TRIPOS>ATOM
      1 C          21.9451   26.1034    1.6890 C.3     1  UNL1        0.1086
      2 C          20.1663   24.2788    1.1822 C.2     1  UNL1        0.2220
      3 O          19.3721   25.2736    0.3887 O.2     1  UNL1       -0.2751
      4 N          21.4528   24.6937    1.8324 N.am    1  UNL1       -0.3030
      5 H          21.9741   24.0409    2.3532 H       1  UNL1        0.1495
      6 C          20.1580   20.3206    1.4695 C.3     1  UNL1        0.0172
      7 C          20.6503   21.7303    1.3262 C.3     1  UNL1        0.0107
      8 C          19.6741   22.8692    1.3255 C.3     1  UNL1        0.0765
      9 C          18.2056   22.5984    1.4682 C.3     1  UNL1        0.0091
     10 C          17.7134   21.1888    1.6115 C.3     1  UNL1        0.0005
     11 C          18.6896   20.0498    1.6122 C.3     1  UNL1        0.0016
     12 C          21.1342   19.1818    1.4701 C.3     1  UNL1        0.0603
     13 C          21.2637   19.2936    2.9603 C.3     1  UNL1        0.0199
     14 C          21.0047   19.0699   -0.0200 C.3     1  UNL1        0.0199
     15 O          24.0726   19.7246    1.2029 O.2     1  UNL1       -0.2749
     16 C          23.5796   18.3143    1.3371 C.2     1  UNL1        0.2255
     17 N          22.1104   18.0429    1.4707 N.am    1  UNL1       -0.2827
     18 C          21.6174   16.6326    1.6050 C.3     1  UNL1        0.0933
     19 C          22.5936   15.4937    1.6056 C.3     1  UNL1        0.0220
     20 C          24.0627   15.7651    1.4719 C.3     1  UNL1        0.0113
     21 C          24.5557   17.1754    1.3377 C.3     1  UNL1        0.0853
     22 C          21.5358   27.1459    2.6869 C.3     1  UNL1        0.1839
     23 O          21.7902   26.9257    4.1486 O.3     1  UNL1       -0.3775
     24 H          22.2228   26.0669    4.2758 H       1  UNL1        0.2106
     25 C          20.8720   28.4085    2.2229 C.3     1  UNL1        0.1339
     26 N          21.6414   29.6960    2.2012 N.4     1  UNL1        0.2597
     27 H          22.2498   29.6893    3.0199 H       1  UNL1        0.2040
     28 H          20.9097   30.4058    2.1667 H       1  UNL1        0.2040
     29 C          22.5053   30.0337    1.0225 C.3     1  UNL1        0.1298
     30 C          23.9915   29.8467    1.1037 C.ar    1  UNL1        0.0322
     31 C          24.8581   30.2108   -0.0652 C.ar    1  UNL1       -0.0029
     32 C          26.3442   30.0237    0.0160 C.ar    1  UNL1       -0.0226
     33 C          26.9635   29.4727    1.2661 C.ar    1  UNL1       -0.0043
     34 C          26.0969   29.1086    2.4350 C.ar    1  UNL1       -0.0004
     35 C          24.6108   29.2956    2.3537 C.ar    1  UNL1        0.0014
     36 C          27.2110   30.3878   -1.1529 C.3     1  UNL1        0.0223
     37 C          27.1276   29.5956   -2.4238 C.3     1  UNL1        0.0047
     38 C          28.1610   31.5441   -1.0507 C.3     1  UNL1        0.0047
     39 C          22.8466   26.4706    0.5478 C.3     1  UNL1        0.0486
     40 C          24.3181   26.1931    0.6352 C.ar    1  UNL1       -0.0204
     41 C          24.8960   25.5967    1.8843 C.ar    1  UNL1       -0.0042
     42 C          26.3675   25.3192    1.9716 C.ar    1  UNL1       -0.0003
     43 C          27.2612   25.6381    0.8099 C.ar    1  UNL1       -0.0000
     44 C          26.6833   26.2346   -0.4393 C.ar    1  UNL1       -0.0003
     45 C          25.2117   26.5121   -0.5266 C.ar    1  UNL1       -0.0042
@<TRIPOS>UNITY_ATOM_ATTR
26 1
charge 1
@<TRIPOS>BOND
     1    15    16    2
     2    16    17   am
     3    17    18    1
     4    18    19    1
     5    19    20    1
     6    20    21    1
     7    17    12    1
     8    12    13    1
     9    12    14    1
    10     6    12    1
    11     6     7    1
    12     7     8    1
    13     8     9    1
    14     9    10    1
    15    10    11    1
    16     8     2    1
    17     2     3    2
    18     2     4   am
    19     4     1    1
    20     1    22    1
    21    22    23    1
    22    22    25    1
    23    25    26    1
    24    26    29    1
    25    29    30    1
    26    30    31   ar
    27    31    32   ar
    28    32    33   ar
    29    33    34   ar
    30    34    35   ar
    31    32    36    1
    32    36    37    1
    33    36    38    1
    34     1    39    1
    35    39    40    1
    36    40    41   ar
    37    41    42   ar
    38    42    43   ar
    39    43    44   ar
    40    44    45   ar
    41    21    16    1
    42    11     6    1
    43    35    30   ar
    44    45    40   ar
    45     4     5    1
    46    23    24    1
    47    26    27    1
    48    26    28    1
@<TRIPOS>MOLECULE
*****
 45 48 0 0 0
SMALL
GASTEIGER

@<TRIPOS>ATOM
      1 C          23.7758   18.3457   -0.1792 C.3     1  UNL1        0.1086
      2 C          24.4036   20.8297   -0.6101 C.2     1  UNL1        0.2220
      3 O          23.0985   21.2634   -0.0112 O.2     1  UNL1       -0.2751
      4 N          24.7423   19.3708   -0.6941 N.am    1  UNL1       -0.3030
      5 H          25.5989   19.0862   -1.0872 H       1  UNL1        0.1495
      6 C          26.4922   24.1896   -0.9251 C.3     1  UNL1        0.0172
      7 C          25.5257   23.1643   -0.4102 C.3     1  UNL1        0.0107
      8 C          25.3700   21.8548   -1.1249 C.3     1  UNL1        0.0765
      9 C          26.1807   21.5705   -2.3545 C.3     1  UNL1        0.0091
     10 C          27.1471   22.5956   -2.8694 C.3     1  UNL1        0.0005
     11 C          27.3029   23.9052   -2.1547 C.3     1  UNL1        0.0016
     12 C          26.6479   25.4991   -0.2103 C.3     1  UNL1        0.0603
     13 C          28.0960   25.1936    0.0339 C.3     1  UNL1        0.0199
     14 C          25.1998   25.8045   -0.4545 C.3     1  UNL1        0.0199
     15 O          26.2731   25.6391    2.7629 O.2     1  UNL1       -0.2749
     16 C          26.6162   26.8787    1.9910 C.2     1  UNL1        0.2255
     17 N          26.8035   26.8087    0.5044 N.am    1  UNL1       -0.2827
     18 C          27.1466   28.0482   -0.2675 C.3     1  UNL1        0.0933
     19 C          27.3022   29.3578    0.4472 C.3     1  UNL1        0.0220
     20 C          27.1148   29.4278    1.9338 C.3     1  UNL1        0.0113
     21 C          26.7718   28.1882    2.7057 C.3     1  UNL1        0.0853
     22 C          23.5957   18.1602    1.2983 C.3     1  UNL1        0.1839
     23 O          24.6487   18.6469    2.2492 O.3     1  UNL1       -0.3775
     24 H          25.3732   19.0538    1.7487 H       1  UNL1        0.2106
     25 C          22.3625   17.4880    1.8250 C.3     1  UNL1        0.1339
     26 N          21.2988   18.2983    2.5048 N.4     1  UNL1        0.2597
     27 H          21.3677   18.0968    3.5023 H       1  UNL1        0.2040
     28 H          20.4446   18.0122    2.0265 H       1  UNL1        0.2040
     29 C          21.2890   19.7916    2.3644 C.3     1  UNL1        0.1298
     30 C          20.0053   20.5086    2.0674 C.ar    1  UNL1        0.0322
     31 C          19.9687   21.5758    1.0139 C.ar    1  UNL1       -0.0029
     32 C          18.6851   22.2927    0.7169 C.ar    1  UNL1       -0.0226
     33 C          17.4380   21.9425    1.4734 C.ar    1  UNL1       -0.0043
     34 C          17.4747   20.8753    2.5269 C.ar    1  UNL1       -0.0004
     35 C          18.7583   20.1584    2.8238 C.ar    1  UNL1        0.0014
     36 C          18.6484   23.3599   -0.3366 C.3     1  UNL1        0.0223
     37 C          18.3552   22.9967   -1.7621 C.3     1  UNL1        0.0047
     38 C          18.9049   24.7901    0.0355 C.3     1  UNL1        0.0047
     39 C          22.9895   17.5061   -1.1419 C.3     1  UNL1        0.0486
     40 C          21.8678   18.1177   -1.9277 C.ar    1  UNL1       -0.0204
     41 C          20.7617   18.8406   -1.2179 C.ar    1  UNL1       -0.0042
     42 C          19.6400   19.4523   -2.0038 C.ar    1  UNL1       -0.0003
     43 C          19.6244   19.3410   -3.4996 C.ar    1  UNL1       -0.0000
     44 C          20.7305   18.6181   -4.2095 C.ar    1  UNL1       -0.0003
     45 C          21.8523   18.0064   -3.4235 C.ar    1  UNL1       -0.0042
@<TRIPOS>UNITY_ATOM_ATTR
26 1
charge 1
@<TRIPOS>BOND
     1    15    16    2
     2    16    17   am
     3    17    18    1
     4    18    19    1
     5    19    20    1
     6    20    21    1
     7    17    12    1
     8    12    13    1
     9    12    14    1
    10     6    12    1
    11     6     7    1
    12     7     8    1
    13     8     9    1
    14     9    10    1
    15    10    11    1
    16     8     2    1
    17     2     3    2
    18     2     4   am
    19     4     1    1
    20     1    22    1
    21    22    23    1
    22    22    25    1
    23    25    26    1
    24    26    29    1
    25    29    30    1
    26    30    31   ar
    27    31    32   ar
    28    32    33   ar
    29    33    34   ar
    30    34    35   ar
    31    32    36    1
    32    36    37    1
    33    36    38    1
    34     1    39    1
    35    39    40    1
    36    40    41   ar
    37    41    42   ar
    38    42    43   ar
    39    43    44   ar
    40    44    45   ar
    41    21    16    1
    42    11     6    1
    43    35    30   ar
    44    45    40   ar
    45     4     5    1
    46    23    24    1
    47    26    27    1
    48    26    28    1
@<TRIPOS>MOLECULE
*****
 45 48 0 0 0
SMALL
GASTEIGER

@<TRIPOS>ATOM
      1 C          22.2579   18.7911   -0.0011 C.3     1  UNL1        0.1086
      2 C          24.3795   20.2877   -0.0957 C.2     1  UNL1        0.2220
      3 O          25.0909   19.3370    0.8209 O.2     1  UNL1       -0.2751
      4 N          22.9630   20.0148   -0.5067 N.am    1  UNL1       -0.3030
      5 H          22.4960   20.6387   -1.1083 H       1  UNL1        0.1495
      6 C          25.7237   24.0146   -0.3269 C.3     1  UNL1        0.0172
      7 C          25.0185   22.7909    0.1786 C.3     1  UNL1        0.0107
      8 C          25.0846   21.5113   -0.6012 C.3     1  UNL1        0.0765
      9 C          25.8558   21.4553   -1.8866 C.3     1  UNL1        0.0091
     10 C          26.5609   22.6789   -2.3921 C.3     1  UNL1        0.0005
     11 C          26.4949   23.9586   -1.6123 C.3     1  UNL1        0.0016
     12 C          25.6576   25.2942    0.4529 C.3     1  UNL1        0.0603
     13 C          25.9188   24.5354    1.7201 C.3     1  UNL1        0.0199
     14 C          25.3963   26.0530   -0.8144 C.3     1  UNL1        0.0199
     15 O          28.1735   26.8090    1.0659 O.2     1  UNL1       -0.2749
     16 C          26.8494   27.3313    1.5392 C.2     1  UNL1        0.2255
     17 N          25.5915   26.5739    1.2327 N.am    1  UNL1       -0.2827
     18 C          24.2674   27.0962    1.7060 C.3     1  UNL1        0.0933
     19 C          24.2012   28.3759    2.4857 C.3     1  UNL1        0.0220
     20 C          25.4592   29.1332    2.7922 C.3     1  UNL1        0.0113
     21 C          26.7833   28.6109    2.3190 C.3     1  UNL1        0.0853
     22 C          21.9675   18.6440    1.4631 C.3     1  UNL1        0.1839
     23 O          22.3718   17.3935    2.1860 O.3     1  UNL1       -0.3775
     24 H          22.8058   16.7872    1.5654 H       1  UNL1        0.2106
     25 C          21.2727   19.7475    2.2044 C.3     1  UNL1        0.1339
     26 N          19.7898   19.9265    2.0657 N.4     1  UNL1        0.2597
     27 H          19.5468   20.7757    2.5758 H       1  UNL1        0.2040
     28 H          19.4136   19.0454    2.4157 H       1  UNL1        0.2040
     29 C          19.1731   20.0479    0.7038 C.3     1  UNL1        0.1298
     30 C          18.9834   21.4009    0.0843 C.ar    1  UNL1        0.0322
     31 C          19.2966   22.6376    0.8732 C.ar    1  UNL1       -0.0029
     32 C          19.1069   23.9904    0.2536 C.ar    1  UNL1       -0.0226
     33 C          18.6041   24.1065   -1.1548 C.ar    1  UNL1       -0.0043
     34 C          18.2910   22.8697   -1.9437 C.ar    1  UNL1       -0.0004
     35 C          18.4806   21.5169   -1.3242 C.ar    1  UNL1        0.0014
     36 C          19.4200   25.2272    1.0425 C.3     1  UNL1        0.0223
     37 C          20.8311   25.7301    1.1201 C.3     1  UNL1        0.0047
     38 C          18.3221   25.9611    1.7538 C.3     1  UNL1        0.0047
     39 C          21.8432   17.7146   -0.9599 C.3     1  UNL1        0.0486
     40 C          20.6384   17.9100   -1.8317 C.ar    1  UNL1       -0.0204
     41 C          19.3638   17.1816   -1.5240 C.ar    1  UNL1       -0.0042
     42 C          18.1590   17.3771   -2.3959 C.ar    1  UNL1       -0.0003
     43 C          18.2288   18.3010   -3.5756 C.ar    1  UNL1       -0.0000
     44 C          19.5034   19.0295   -3.8832 C.ar    1  UNL1       -0.0003
     45 C          20.7083   18.8340   -3.0113 C.ar    1  UNL1       -0.0042
@<TRIPOS>UNITY_ATOM_ATTR
26 1
charge 1
@<TRIPOS>BOND
     1    15    16    2
     2    16    17   am
     3    17    18    1
     4    18    19    1
     5    19    20    1
     6    20    21    1
     7    17    12    1
     8    12    13    1
     9    12    14    1
    10     6    12    1
    11     6     7    1
    12     7     8    1
    13     8     9    1
    14     9    10    1
    15    10    11    1
    16     8     2    1
    17     2     3    2
    18     2     4   am
    19     4     1    1
    20     1    22    1
    21    22    23    1
    22    22    25    1
    23    25    26    1
    24    26    29    1
    25    29    30    1
    26    30    31   ar
    27    31    32   ar
    28    32    33   ar
    29    33    34   ar
    30    34    35   ar
    31    32    36    1
    32    36    37    1
    33    36    38    1
    34     1    39    1
    35    39    40    1
    36    40    41   ar
    37    41    42   ar
    38    42    43   ar
    39    43    44   ar
    40    44    45   ar
    41    21    16    1
    42    11     6    1
    43    35    30   ar
    44    45    40   ar
    45     4     5    1
    46    23    24    1
    47    26    27    1
    48    26    28    1
@<TRIPOS>MOLECULE
*****
 45 48 0 0 0
SMALL
GASTEIGER

@<TRIPOS>ATOM
      1 C          22.0866   18.9328    0.3898 C.3     1  UNL1        0.1086
      2 C          24.2686   20.3186    0.1286 C.2     1  UNL1        0.2220
      3 O          24.9588   19.4165    1.1084 O.2     1  UNL1       -0.2751
      4 N          22.8325   20.0768   -0.2307 N.am    1  UNL1       -0.3030
      5 H          22.3795   20.6689   -0.8737 H       1  UNL1        0.1495
      6 C          25.8545   23.9191   -0.3923 C.3     1  UNL1        0.0172
      7 C          25.1085   22.7751    0.2281 C.3     1  UNL1        0.0107
      8 C          25.0146   21.4626   -0.4918 C.3     1  UNL1        0.0765
      9 C          25.6667   21.2939   -1.8321 C.3     1  UNL1        0.0091
     10 C          26.4126   22.4378   -2.4525 C.3     1  UNL1        0.0005
     11 C          26.5065   23.7505   -1.7326 C.3     1  UNL1        0.0016
     12 C          25.9484   25.2317    0.3276 C.3     1  UNL1        0.0603
     13 C          26.2417   24.5083    1.6084 C.3     1  UNL1        0.0199
     14 C          25.6551   25.9552   -0.9533 C.3     1  UNL1        0.0199
     15 O          23.4993   26.4402    1.5691 O.2     1  UNL1       -0.2749
     16 C          24.8178   27.1486    1.6682 C.2     1  UNL1        0.2255
     17 N          26.0423   26.5444    1.0475 N.am    1  UNL1       -0.2827
     18 C          27.3608   27.2528    1.1465 C.3     1  UNL1        0.0933
     19 C          27.4547   28.5654    1.8664 C.3     1  UNL1        0.0220
     20 C          26.2302   29.1696    2.4871 C.3     1  UNL1        0.0113
     21 C          24.9117   28.4612    2.3880 C.3     1  UNL1        0.0853
     22 C          21.4768   19.0857    1.7517 C.3     1  UNL1        0.1839
     23 O          22.3437   19.0154    2.9738 O.3     1  UNL1       -0.3775
     24 H          23.2650   18.8679    2.7086 H       1  UNL1        0.2106
     25 C          20.0001   19.3087    1.8914 C.3     1  UNL1        0.1339
     26 N          19.4676   20.1028    3.0473 N.4     1  UNL1        0.2597
     27 H          20.2297   20.6982    3.3715 H       1  UNL1        0.2040
     28 H          19.1280   19.3854    3.6879 H       1  UNL1        0.2040
     29 C          18.2735   20.9911    2.8603 C.3     1  UNL1        0.1298
     30 C          18.3373   22.1409    1.8989 C.ar    1  UNL1        0.0322
     31 C          18.3100   21.8853    0.4211 C.ar    1  UNL1       -0.0029
     32 C          18.3738   23.0350   -0.5401 C.ar    1  UNL1       -0.0226
     33 C          18.4649   24.4403   -0.0236 C.ar    1  UNL1       -0.0043
     34 C          18.4922   24.6959    1.4542 C.ar    1  UNL1       -0.0004
     35 C          18.4284   23.5462    2.4154 C.ar    1  UNL1        0.0014
     36 C          18.3465   22.7794   -2.0180 C.3     1  UNL1        0.0223
     37 C          18.2822   23.9308   -2.9772 C.3     1  UNL1        0.0047
     38 C          18.3834   21.3724   -2.5366 C.3     1  UNL1        0.0047
     39 C          21.9505   17.6360   -0.3517 C.3     1  UNL1        0.0486
     40 C          20.6428   17.2700   -0.9887 C.ar    1  UNL1       -0.0204
     41 C          20.1042   18.0925   -2.1216 C.ar    1  UNL1       -0.0042
     42 C          18.7965   17.7264   -2.7587 C.ar    1  UNL1       -0.0003
     43 C          18.0273   16.5379   -2.2628 C.ar    1  UNL1       -0.0000
     44 C          18.5658   15.7155   -1.1299 C.ar    1  UNL1       -0.0003
     45 C          19.8736   16.0815   -0.4929 C.ar    1  UNL1       -0.0042
@<TRIPOS>UNITY_ATOM_ATTR
26 1
charge 1
@<TRIPOS>BOND
     1    15    16    2
     2    16    17   am
     3    17    18    1
     4    18    19    1
     5    19    20    1
     6    20    21    1
     7    17    12    1
     8    12    13    1
     9    12    14    1
    10     6    12    1
    11     6     7    1
    12     7     8    1
    13     8     9    1
    14     9    10    1
    15    10    11    1
    16     8     2    1
    17     2     3    2
    18     2     4   am
    19     4     1    1
    20     1    22    1
    21    22    23    1
    22    22    25    1
    23    25    26    1
    24    26    29    1
    25    29    30    1
    26    30    31   ar
    27    31    32   ar
    28    32    33   ar
    29    33    34   ar
    30    34    35   ar
    31    32    36    1
    32    36    37    1
    33    36    38    1
    34     1    39    1
    35    39    40    1
    36    40    41   ar
    37    41    42   ar
    38    42    43   ar
    39    43    44   ar
    40    44    45   ar
    41    21    16    1
    42    11     6    1
    43    35    30   ar
    44    45    40   ar
    45     4     5    1
    46    23    24    1
    47    26    27    1
    48    26    28    1
@<TRIPOS>MOLECULE
*****
 45 48 0 0 0
SMALL
GASTEIGER

@<TRIPOS>ATOM
      1 C          23.3179   27.4070    1.6497 C.3     1  UNL1        0.1086
      2 C          21.3827   25.7833    2.2569 C.2     1  UNL1        0.2220
      3 O          21.8268   25.7898    3.6897 O.2     1  UNL1       -0.2751
      4 N          22.1282   26.5919    1.2369 N.am    1  UNL1       -0.3030
      5 H          21.8367   26.5877    0.2966 H       1  UNL1        0.1495
      6 C          19.1664   22.6963    1.1129 C.3     1  UNL1        0.0172
      7 C          20.3560   23.5115    1.5257 C.3     1  UNL1        0.0107
      8 C          20.1931   24.9682    1.8441 C.3     1  UNL1        0.0765
      9 C          18.8405   25.6098    1.7499 C.3     1  UNL1        0.0091
     10 C          17.6509   24.7947    1.3371 C.3     1  UNL1        0.0005
     11 C          17.8138   23.3379    1.0186 C.3     1  UNL1        0.0016
     12 C          19.3294   21.2397    0.7944 C.3     1  UNL1        0.0603
     13 C          17.8424   21.0570    0.8690 C.3     1  UNL1        0.0199
     14 C          20.8163   21.4223    0.7199 C.3     1  UNL1        0.0199
     15 O          18.9479   20.2672   -2.0178 O.2     1  UNL1       -0.2749
     16 C          19.3016   19.2967   -0.9302 C.2     1  UNL1        0.2255
     17 N          19.4924   19.7829    0.4759 N.am    1  UNL1       -0.2827
     18 C          19.8462   18.8124    1.5636 C.3     1  UNL1        0.0933
     19 C          20.0092   17.3557    1.2452 C.3     1  UNL1        0.0220
     20 C          19.8185   16.8695   -0.1609 C.3     1  UNL1        0.0113
     21 C          19.4647   17.8400   -1.2486 C.3     1  UNL1        0.0853
     22 C          24.6871   26.7947    1.6382 C.3     1  UNL1        0.1839
     23 O          25.6985   27.1995    2.6693 O.3     1  UNL1       -0.3775
     24 H          25.3085   27.8603    3.2627 H       1  UNL1        0.2106
     25 C          25.0450   25.7776    0.5954 C.3     1  UNL1        0.1339
     26 N          24.8684   24.3158    0.8818 N.4     1  UNL1        0.2597
     27 H          24.0022   24.0289    0.4258 H       1  UNL1        0.2040
     28 H          24.8992   24.2710    1.9003 H       1  UNL1        0.2040
     29 C          25.9239   23.3363    0.4616 C.3     1  UNL1        0.1298
     30 C          25.6663   22.4010   -0.6825 C.ar    1  UNL1        0.0322
     31 C          24.6983   21.2667   -0.5206 C.ar    1  UNL1       -0.0029
     32 C          24.4408   20.3314   -1.6647 C.ar    1  UNL1       -0.0226
     33 C          25.1513   20.5305   -2.9707 C.ar    1  UNL1       -0.0043
     34 C          26.1193   21.6648   -3.1326 C.ar    1  UNL1       -0.0004
     35 C          26.3768   22.6001   -1.9885 C.ar    1  UNL1        0.0014
     36 C          23.4728   19.1970   -1.5028 C.3     1  UNL1        0.0223
     37 C          23.1727   18.6564   -0.1362 C.3     1  UNL1        0.0047
     38 C          22.8050   18.6033   -2.7075 C.3     1  UNL1        0.0047
     39 C          23.1382   28.8345    2.0741 C.3     1  UNL1        0.0486
     40 C          22.6601   29.8563    1.0856 C.ar    1  UNL1       -0.0204
     41 C          23.3324   29.9803   -0.2495 C.ar    1  UNL1       -0.0042
     42 C          22.8543   31.0021   -1.2380 C.ar    1  UNL1       -0.0003
     43 C          21.7037   31.9000   -0.8915 C.ar    1  UNL1       -0.0000
     44 C          21.0313   31.7760    0.4437 C.ar    1  UNL1       -0.0003
     45 C          21.5095   30.7541    1.4322 C.ar    1  UNL1       -0.0042
@<TRIPOS>UNITY_ATOM_ATTR
26 1
charge 1
@<TRIPOS>BOND
     1    15    16    2
     2    16    17   am
     3    17    18    1
     4    18    19    1
     5    19    20    1
     6    20    21    1
     7    17    12    1
     8    12    13    1
     9    12    14    1
    10     6    12    1
    11     6     7    1
    12     7     8    1
    13     8     9    1
    14     9    10    1
    15    10    11    1
    16     8     2    1
    17     2     3    2
    18     2     4   am
    19     4     1    1
    20     1    22    1
    21    22    23    1
    22    22    25    1
    23    25    26    1
    24    26    29    1
    25    29    30    1
    26    30    31   ar
    27    31    32   ar
    28    32    33   ar
    29    33    34   ar
    30    34    35   ar
    31    32    36    1
    32    36    37    1
    33    36    38    1
    34     1    39    1
    35    39    40    1
    36    40    41   ar
    37    41    42   ar
    38    42    43   ar
    39    43    44   ar
    40    44    45   ar
    41    21    16    1
    42    11     6    1
    43    35    30   ar
    44    45    40   ar
    45     4     5    1
    46    23    24    1
    47    26    27    1
    48    26    28    1
@<TRIPOS>MOLECULE
*****
 45 48 0 0 0
SMALL
GASTEIGER

@<TRIPOS>ATOM
      1 C          23.5478   28.1859    1.8833 C.3     1  UNL1        0.1086
      2 C          22.8809   30.1127    0.2731 C.2     1  UNL1        0.2220
      3 O          23.3746   29.3088   -0.8932 O.2     1  UNL1       -0.2751
      4 N          22.9676   29.5512    1.6613 N.am    1  UNL1       -0.3030
      5 H          22.6436   30.0788    2.4268 H       1  UNL1        0.1495
      6 C          22.6119   33.9808   -0.5727 C.3     1  UNL1        0.0172
      7 C          23.1921   32.6154   -0.3507 C.3     1  UNL1        0.0107
      8 C          22.3007   31.4780    0.0511 C.3     1  UNL1        0.0765
      9 C          20.8290   31.7058    0.2309 C.3     1  UNL1        0.0091
     10 C          20.2488   33.0710    0.0089 C.3     1  UNL1        0.0005
     11 C          21.1403   34.2086   -0.3929 C.3     1  UNL1        0.0016
     12 C          23.5034   35.1183   -0.9744 C.3     1  UNL1        0.0603
     13 C          24.3785   34.1647   -1.7325 C.3     1  UNL1        0.0199
     14 C          22.6282   36.0719   -0.2164 C.3     1  UNL1        0.0199
     15 O          22.9635   36.6228   -3.5131 O.2     1  UNL1       -0.2749
     16 C          24.1249   37.0081   -2.6455 C.2     1  UNL1        0.2255
     17 N          24.3948   36.2558   -1.3762 N.am    1  UNL1       -0.2827
     18 C          25.5562   36.6411   -0.5086 C.3     1  UNL1        0.0933
     19 C          26.4476   37.7786   -0.9103 C.3     1  UNL1        0.0220
     20 C          26.1777   38.5308   -2.1796 C.3     1  UNL1        0.0113
     21 C          25.0163   38.1456   -3.0472 C.3     1  UNL1        0.0853
     22 C          22.7029   26.9666    1.6607 C.3     1  UNL1        0.1839
     23 O          22.5416   26.4081    0.2780 O.3     1  UNL1       -0.3775
     24 H          23.0449   26.9495   -0.3501 H       1  UNL1        0.2106
     25 C          22.0194   26.3059    2.8210 C.3     1  UNL1        0.1339
     26 N          20.5348   26.4376    2.9909 N.4     1  UNL1        0.2597
     27 H          20.3691   27.3344    3.4478 H       1  UNL1        0.2040
     28 H          20.2822   25.5948    3.5069 H       1  UNL1        0.2040
     29 C          19.6354   26.3901    1.7914 C.3     1  UNL1        0.1298
     30 C          18.9334   25.1146    1.4304 C.ar    1  UNL1        0.0322
     31 C          18.9715   24.6114    0.0179 C.ar    1  UNL1       -0.0029
     32 C          18.2694   23.3360   -0.3431 C.ar    1  UNL1       -0.0226
     33 C          17.5293   22.5637    0.7085 C.ar    1  UNL1       -0.0043
     34 C          17.4912   23.0669    2.1210 C.ar    1  UNL1       -0.0004
     35 C          18.1932   24.3424    2.4820 C.ar    1  UNL1        0.0014
     36 C          18.3075   22.8327   -1.7557 C.3     1  UNL1        0.0223
     37 C          18.2878   21.3576   -2.0270 C.3     1  UNL1        0.0047
     38 C          18.3653   23.8045   -2.8968 C.3     1  UNL1        0.0047
     39 C          24.9730   28.0399    2.3278 C.3     1  UNL1        0.0486
     40 C          25.9134   27.1628    1.5556 C.ar    1  UNL1       -0.0204
     41 C          26.4160   25.8858    2.1612 C.ar    1  UNL1       -0.0042
     42 C          27.3563   25.0087    1.3890 C.ar    1  UNL1       -0.0003
     43 C          27.7941   25.4085    0.0111 C.ar    1  UNL1       -0.0000
     44 C          27.2915   26.6855   -0.5945 C.ar    1  UNL1       -0.0003
     45 C          26.3511   27.5626    0.1778 C.ar    1  UNL1       -0.0042
@<TRIPOS>UNITY_ATOM_ATTR
26 1
charge 1
@<TRIPOS>BOND
     1    15    16    2
     2    16    17   am
     3    17    18    1
     4    18    19    1
     5    19    20    1
     6    20    21    1
     7    17    12    1
     8    12    13    1
     9    12    14    1
    10     6    12    1
    11     6     7    1
    12     7     8    1
    13     8     9    1
    14     9    10    1
    15    10    11    1
    16     8     2    1
    17     2     3    2
    18     2     4   am
    19     4     1    1
    20     1    22    1
    21    22    23    1
    22    22    25    1
    23    25    26    1
    24    26    29    1
    25    29    30    1
    26    30    31   ar
    27    31    32   ar
    28    32    33   ar
    29    33    34   ar
    30    34    35   ar
    31    32    36    1
    32    36    37    1
    33    36    38    1
    34     1    39    1
    35    39    40    1
    36    40    41   ar
    37    41    42   ar
    38    42    43   ar
    39    43    44   ar
    40    44    45   ar
    41    21    16    1
    42    11     6    1
    43    35    30   ar
    44    45    40   ar
    45     4     5    1
    46    23    24    1
    47    26    27    1
    48    26    28    1
@<TRIPOS>MOLECULE
*****
 45 48 0 0 0
SMALL
GASTEIGER

@<TRIPOS>ATOM
      1 C          23.6151   18.5890    1.3030 C.3     1  UNL1        0.1086
      2 C          24.4036   20.2538   -0.5291 C.2     1  UNL1        0.2220
      3 O          23.6754   19.4545   -1.5688 O.2     1  UNL1       -0.2751
      4 N          24.3734   19.8211    0.9068 N.am    1  UNL1       -0.3030
      5 H          24.8513   20.3457    1.5892 H       1  UNL1        0.1495
      6 C          25.8177   23.9618   -0.4893 C.3     1  UNL1        0.0172
      7 C          25.0594   22.7296   -0.0931 C.3     1  UNL1        0.0107
      8 C          25.1619   21.4859   -0.9253 C.3     1  UNL1        0.0765
      9 C          26.0226   21.4742   -2.1537 C.3     1  UNL1        0.0091
     10 C          26.7809   22.7063   -2.5499 C.3     1  UNL1        0.0005
     11 C          26.6785   23.9501   -1.7177 C.3     1  UNL1        0.0016
     12 C          25.7152   25.2055    0.3429 C.3     1  UNL1        0.0603
     13 C          25.9088   24.3894    1.5864 C.3     1  UNL1        0.0199
     14 C          25.5217   26.0216   -0.9007 C.3     1  UNL1        0.0199
     15 O          28.1931   26.7330    1.0688 O.2     1  UNL1       -0.2749
     16 C          26.8517   27.2130    1.5380 C.2     1  UNL1        0.2255
     17 N          25.6127   26.4493    1.1751 N.am    1  UNL1       -0.2827
     18 C          24.2713   26.9293    1.6442 C.3     1  UNL1        0.0933
     19 C          24.1688   28.1731    2.4764 C.3     1  UNL1        0.0220
     20 C          25.4077   28.9368    2.8394 C.3     1  UNL1        0.0113
     21 C          26.7491   28.4568    2.3702 C.3     1  UNL1        0.0853
     22 C          22.1661   18.6882    1.6780 C.3     1  UNL1        0.1839
     23 O          21.7574   18.6104    3.1191 O.3     1  UNL1       -0.3775
     24 H          22.5454   18.4964    3.6730 H       1  UNL1        0.2106
     25 C          21.1260   18.8653    0.6118 C.3     1  UNL1        0.1339
     26 N          19.7445   19.3194    0.9798 N.4     1  UNL1        0.2597
     27 H          19.8526   20.0549    1.6782 H       1  UNL1        0.2040
     28 H          19.2849   18.4575    1.2737 H       1  UNL1        0.2040
     29 C          18.8255   19.8571   -0.0766 C.3     1  UNL1        0.1298
     30 C          18.7833   21.3306   -0.3549 C.ar    1  UNL1        0.0322
     31 C          19.1659   22.3075    0.7172 C.ar    1  UNL1       -0.0029
     32 C          19.1237   23.7808    0.4389 C.ar    1  UNL1       -0.0226
     33 C          18.6990   24.2772   -0.9113 C.ar    1  UNL1       -0.0043
     34 C          18.3164   23.3003   -1.9834 C.ar    1  UNL1       -0.0004
     35 C          18.3586   21.8270   -1.7051 C.ar    1  UNL1        0.0014
     36 C          19.5062   24.7578    1.5109 C.3     1  UNL1        0.0223
     37 C          20.6781   25.6722    1.3089 C.3     1  UNL1        0.0047
     38 C          18.7170   24.8204    2.7850 C.3     1  UNL1        0.0047
     39 C          24.3058   17.2576    1.3241 C.3     1  UNL1        0.0486
     40 C          24.8029   16.6502    0.0459 C.ar    1  UNL1       -0.0204
     41 C          26.2270   16.8559   -0.3781 C.ar    1  UNL1       -0.0042
     42 C          26.7241   16.2485   -1.6563 C.ar    1  UNL1       -0.0003
     43 C          25.7973   15.4353   -2.5106 C.ar    1  UNL1       -0.0000
     44 C          24.3732   15.2296   -2.0865 C.ar    1  UNL1       -0.0003
     45 C          23.8761   15.8371   -0.8083 C.ar    1  UNL1       -0.0042
@<TRIPOS>UNITY_ATOM_ATTR
26 1
charge 1
@<TRIPOS>BOND
     1    15    16    2
     2    16    17   am
     3    17    18    1
     4    18    19    1
     5    19    20    1
     6    20    21    1
     7    17    12    1
     8    12    13    1
     9    12    14    1
    10     6    12    1
    11     6     7    1
    12     7     8    1
    13     8     9    1
    14     9    10    1
    15    10    11    1
    16     8     2    1
    17     2     3    2
    18     2     4   am
    19     4     1    1
    20     1    22    1
    21    22    23    1
    22    22    25    1
    23    25    26    1
    24    26    29    1
    25    29    30    1
    26    30    31   ar
    27    31    32   ar
    28    32    33   ar
    29    33    34   ar
    30    34    35   ar
    31    32    36    1
    32    36    37    1
    33    36    38    1
    34     1    39    1
    35    39    40    1
    36    40    41   ar
    37    41    42   ar
    38    42    43   ar
    39    43    44   ar
    40    44    45   ar
    41    21    16    1
    42    11     6    1
    43    35    30   ar
    44    45    40   ar
    45     4     5    1
    46    23    24    1
    47    26    27    1
    48    26    28    1
@<TRIPOS>MOLECULE
*****
 45 48 0 0 0
SMALL
GASTEIGER

@<TRIPOS>ATOM
      1 C          22.4959   18.6621    0.0471 C.3     1  UNL1        0.1086
      2 C          24.6247   20.0917   -0.3710 C.2     1  UNL1        0.2220
      3 O          25.4774   18.9763    0.1573 O.2     1  UNL1       -0.2751
      4 N          23.1340   19.9346   -0.4260 N.am    1  UNL1       -0.3030
      5 H          22.5743   20.6666   -0.7727 H       1  UNL1        0.1495
      6 C          25.7892   23.8837   -0.4914 C.3     1  UNL1        0.0172
      7 C          25.1511   22.6112   -0.0183 C.3     1  UNL1        0.0107
      8 C          25.2628   21.3640   -0.8441 C.3     1  UNL1        0.0765
      9 C          26.0125   21.3892   -2.1430 C.3     1  UNL1        0.0091
     10 C          26.6506   22.6615   -2.6161 C.3     1  UNL1        0.0005
     11 C          26.5390   23.9088   -1.7903 C.3     1  UNL1        0.0016
     12 C          25.6775   25.1308    0.3344 C.3     1  UNL1        0.0603
     13 C          25.5238   25.9450   -0.9160 C.3     1  UNL1        0.0199
     14 C          25.8312   24.3167    1.5848 C.3     1  UNL1        0.0199
     15 O          28.1430   26.6856    1.0444 O.2     1  UNL1       -0.2749
     16 C          26.7986   27.1554    1.5153 C.2     1  UNL1        0.2255
     17 N          25.5658   26.3781    1.1603 N.am    1  UNL1       -0.2827
     18 C          24.2214   26.8479    1.6311 C.3     1  UNL1        0.0933
     19 C          24.1096   28.0951    2.4570 C.3     1  UNL1        0.0220
     20 C          25.3424   28.8724    2.8120 C.3     1  UNL1        0.0113
     21 C          26.6868   28.4026    2.3411 C.3     1  UNL1        0.0853
     22 C          22.2996   18.4221    1.5147 C.3     1  UNL1        0.1839
     23 O          23.3077   18.9350    2.5000 O.3     1  UNL1       -0.3775
     24 H          24.0180   19.3950    2.0260 H       1  UNL1        0.2106
     25 C          21.0952   17.6693    1.9970 C.3     1  UNL1        0.1339
     26 N          19.8853   18.4164    2.4746 N.4     1  UNL1        0.2597
     27 H          19.8915   18.3664    3.4933 H       1  UNL1        0.2040
     28 H          19.1173   17.9550    1.9871 H       1  UNL1        0.2040
     29 C          19.7048   19.8609    2.1131 C.3     1  UNL1        0.1298
     30 C          19.2924   20.2400    0.7215 C.ar    1  UNL1        0.0322
     31 C          19.1624   21.6862    0.3455 C.ar    1  UNL1       -0.0029
     32 C          18.7501   22.0652   -1.0460 C.ar    1  UNL1       -0.0226
     33 C          18.4677   20.9979   -2.0614 C.ar    1  UNL1       -0.0043
     34 C          18.5976   19.5517   -1.6854 C.ar    1  UNL1       -0.0004
     35 C          19.0100   19.1727   -0.2939 C.ar    1  UNL1        0.0014
     36 C          18.6201   23.5115   -1.4221 C.3     1  UNL1        0.0223
     37 C          18.2556   23.8913   -2.8267 C.3     1  UNL1        0.0047
     38 C          18.8545   24.5779   -0.3936 C.3     1  UNL1        0.0047
     39 C          22.0542   17.6297   -0.9474 C.3     1  UNL1        0.0486
     40 C          22.5770   17.6700   -2.3527 C.ar    1  UNL1       -0.0204
     41 C          21.7145   18.2011   -3.4589 C.ar    1  UNL1       -0.0042
     42 C          22.2373   18.2414   -4.8642 C.ar    1  UNL1       -0.0003
     43 C          23.6229   17.7505   -5.1633 C.ar    1  UNL1       -0.0000
     44 C          24.4854   17.2193   -4.0571 C.ar    1  UNL1       -0.0003
     45 C          23.9625   17.1791   -2.6517 C.ar    1  UNL1       -0.0042
@<TRIPOS>UNITY_ATOM_ATTR
26 1
charge 1
@<TRIPOS>BOND
     1    15    16    2
     2    16    17   am
     3    17    18    1
     4    18    19    1
     5    19    20    1
     6    20    21    1
     7    17    12    1
     8    12    13    1
     9    12    14    1
    10     6    12    1
    11     6     7    1
    12     7     8    1
    13     8     9    1
    14     9    10    1
    15    10    11    1
    16     8     2    1
    17     2     3    2
    18     2     4   am
    19     4     1    1
    20     1    22    1
    21    22    23    1
    22    22    25    1
    23    25    26    1
    24    26    29    1
    25    29    30    1
    26    30    31   ar
    27    31    32   ar
    28    32    33   ar
    29    33    34   ar
    30    34    35   ar
    31    32    36    1
    32    36    37    1
    33    36    38    1
    34     1    39    1
    35    39    40    1
    36    40    41   ar
    37    41    42   ar
    38    42    43   ar
    39    43    44   ar
    40    44    45   ar
    41    21    16    1
    42    11     6    1
    43    35    30   ar
    44    45    40   ar
    45     4     5    1
    46    23    24    1
    47    26    27    1
    48    26    28    1
@<TRIPOS>MOLECULE
*****
 45 48 0 0 0
SMALL
GASTEIGER

@<TRIPOS>ATOM
      1 C          21.9652   19.8431    0.8009 C.3     1  UNL1        0.1086
      2 C          24.0249   20.4450   -0.6638 C.2     1  UNL1        0.2220
      3 O          24.0785   19.0334   -1.1684 O.2     1  UNL1       -0.2751
      4 N          22.9683   20.8499    0.3209 N.am    1  UNL1       -0.3030
      5 H          22.9331   21.7763    0.6521 H       1  UNL1        0.1495
      6 C          26.2310   23.7377   -0.8666 C.3     1  UNL1        0.0172
      7 C          25.2279   22.7310   -0.3866 C.3     1  UNL1        0.0107
      8 C          25.0280   21.4517   -1.1438 C.3     1  UNL1        0.0765
      9 C          25.8311   21.1790   -2.3810 C.3     1  UNL1        0.0091
     10 C          26.8342   22.1857   -2.8610 C.3     1  UNL1        0.0005
     11 C          27.0341   23.4651   -2.1038 C.3     1  UNL1        0.0016
     12 C          26.4309   25.0170   -0.1095 C.3     1  UNL1        0.0603
     13 C          27.9168   24.8219   -0.1721 C.3     1  UNL1        0.0199
     14 C          24.9450   25.2122   -0.0469 C.3     1  UNL1        0.0199
     15 O          26.1744   25.0469    2.8794 O.2     1  UNL1       -0.2749
     16 C          26.5025   26.3114    2.1421 C.2     1  UNL1        0.2255
     17 N          26.6308   26.2964    0.6477 N.am    1  UNL1       -0.2827
     18 C          26.9589   27.5608   -0.0896 C.3     1  UNL1        0.0933
     19 C          27.1588   28.8402    0.6676 C.3     1  UNL1        0.0220
     20 C          27.0306   28.8551    2.1620 C.3     1  UNL1        0.0113
     21 C          26.7024   27.5907    2.8992 C.3     1  UNL1        0.0853
     22 C          22.2735   18.9870    1.9933 C.3     1  UNL1        0.1839
     23 O          21.6752   19.3172    3.3286 O.3     1  UNL1       -0.3775
     24 H          21.1185   20.1074    3.2470 H       1  UNL1        0.2106
     25 C          23.1801   17.8006    1.8505 C.3     1  UNL1        0.1339
     26 N          22.6099   16.4134    1.8766 N.4     1  UNL1        0.2597
     27 H          21.7883   16.4214    1.2721 H       1  UNL1        0.2040
     28 H          22.4591   16.2405    2.8704 H       1  UNL1        0.2040
     29 C          23.4516   15.2483    1.4477 C.3     1  UNL1        0.1298
     30 C          23.4390   13.9792    2.2474 C.ar    1  UNL1        0.0322
     31 C          22.1852   13.1606    2.3354 C.ar    1  UNL1       -0.0029
     32 C          22.1726   11.8917    3.1351 C.ar    1  UNL1       -0.0226
     33 C          23.4139   11.4413    3.8467 C.ar    1  UNL1       -0.0043
     34 C          24.6677   12.2599    3.7587 C.ar    1  UNL1       -0.0004
     35 C          24.6803   13.5289    2.9591 C.ar    1  UNL1        0.0014
     36 C          20.9188   11.0730    3.2232 C.3     1  UNL1        0.0223
     37 C          19.6357   11.6028    2.6547 C.3     1  UNL1        0.0047
     38 C          20.9480    9.7246    3.8796 C.3     1  UNL1        0.0047
     39 C          20.6538   19.6926    0.0885 C.3     1  UNL1        0.0486
     40 C          19.5217   20.6274    0.3957 C.ar    1  UNL1       -0.0204
     41 C          18.9646   21.5102   -0.6814 C.ar    1  UNL1       -0.0042
     42 C          17.8325   22.4450   -0.3741 C.ar    1  UNL1       -0.0003
     43 C          17.2574   22.4970    1.0103 C.ar    1  UNL1       -0.0000
     44 C          17.8145   21.6141    2.0875 C.ar    1  UNL1       -0.0003
     45 C          18.9466   20.6793    1.7801 C.ar    1  UNL1       -0.0042
@<TRIPOS>UNITY_ATOM_ATTR
26 1
charge 1
@<TRIPOS>BOND
     1    15    16    2
     2    16    17   am
     3    17    18    1
     4    18    19    1
     5    19    20    1
     6    20    21    1
     7    17    12    1
     8    12    13    1
     9    12    14    1
    10     6    12    1
    11     6     7    1
    12     7     8    1
    13     8     9    1
    14     9    10    1
    15    10    11    1
    16     8     2    1
    17     2     3    2
    18     2     4   am
    19     4     1    1
    20     1    22    1
    21    22    23    1
    22    22    25    1
    23    25    26    1
    24    26    29    1
    25    29    30    1
    26    30    31   ar
    27    31    32   ar
    28    32    33   ar
    29    33    34   ar
    30    34    35   ar
    31    32    36    1
    32    36    37    1
    33    36    38    1
    34     1    39    1
    35    39    40    1
    36    40    41   ar
    37    41    42   ar
    38    42    43   ar
    39    43    44   ar
    40    44    45   ar
    41    21    16    1
    42    11     6    1
    43    35    30   ar
    44    45    40   ar
    45     4     5    1
    46    23    24    1
    47    26    27    1
    48    26    28    1
