@<TRIPOS>MOLECULE
*****
 32 35 0 0 0
SMALL
GASTEIGER

@<TRIPOS>ATOM
      1 O           7.5000    0.0000    0.0000 O.3     1  UNL1       -0.3584
      2 C           6.0000    0.0000    0.0000 C.3     1  UNL1        0.1437
      3 C           5.2500   -1.2990    0.0000 C.3     1  UNL1        0.0538
      4 C           6.0000   -2.5981    0.0000 C.3     1  UNL1        0.1001
      5 N           5.2500   -3.8971    0.0000 N.am    1  UNL1       -0.2070
      6 C           3.7500   -3.8971    0.0000 C.2     1  UNL1        0.2412
      7 O           3.0000   -2.5981    0.0000 O.2     1  UNL1       -0.2733
      8 C           3.0000   -5.1962    0.0000 C.3     1  UNL1        0.0826
      9 C           1.5000   -5.1962    0.0000 C.3     1  UNL1        0.0384
     10 C           0.7500   -3.8971    0.0000 C.ar    1  UNL1        0.0131
     11 C           1.5000   -2.5981    0.0000 C.ar    1  UNL1        0.0001
     12 C           0.7500   -1.2990    0.0000 C.ar    1  UNL1        0.0175
     13 C           1.5000    0.0000    0.0000 C.ar    1  UNL1        0.0015
     14 C           0.7500    1.2990    0.0000 C.ar    1  UNL1       -0.0002
     15 C          -0.7500    1.2990    0.0000 C.ar    1  UNL1        0.0015
     16 C          -1.5000    0.0000    0.0000 C.ar    1  UNL1        0.0191
     17 C          -0.7500   -1.2990    0.0000 C.ar    1  UNL1        0.0828
     18 N          -1.5000   -2.5981    0.0000 N.ar    1  UNL1       -0.2277
     19 C          -0.7500   -3.8971    0.0000 C.ar    1  UNL1        0.1656
     20 N          -1.5000   -5.1962    0.0000 N.pl3   1  UNL1       -0.1075
     21 C           1.5000    2.5981    0.0000 C.ar    1  UNL1       -0.0040
     22 C           3.0000    2.5981    0.0000 C.ar    1  UNL1       -0.0003
     23 C           3.7500    3.8971    0.0000 C.ar    1  UNL1       -0.0000
     24 C           3.0000    5.1962    0.0000 C.ar    1  UNL1       -0.0003
     25 C           1.5000    5.1962    0.0000 C.ar    1  UNL1       -0.0043
     26 C           0.7500    3.8971    0.0000 C.ar    1  UNL1       -0.0218
     27 C          -0.7500    3.8971    0.0000 C.3     1  UNL1        0.0310
     28 C           3.7500   -6.4952    0.0000 C.3     1  UNL1        0.0100
     29 C           7.5000   -2.5981    0.0000 C.3     1  UNL1        0.0489
     30 C           8.2500   -1.2990    0.0000 C.3     1  UNL1        0.0946
     31 C           9.3991   -2.2632    0.0000 C.3     1  UNL1        0.0297
     32 C           9.3991   -0.3349    0.0000 C.3     1  UNL1        0.0297
@<TRIPOS>BOND
     1     1     2    1
     2     2     3    1
     3     3     4    1
     4     4     5    1
     5     5     6   am
     6     6     7    2
     7     6     8    1
     8     8     9    1
     9     9    10    1
    10    10    11   ar
    11    11    12   ar
    12    12    13   ar
    13    13    14   ar
    14    14    15   ar
    15    15    16   ar
    16    16    17   ar
    17    17    18   ar
    18    18    19   ar
    19    19    20    1
    20    14    21    1
    21    21    22   ar
    22    22    23   ar
    23    23    24   ar
    24    24    25   ar
    25    25    26   ar
    26    26    27    1
    27     8    28    1
    28     4    29    1
    29    29    30    1
    30    30    31    1
    31    30    32    1
    32    30     1    1
    33    19    10   ar
    34    26    21   ar
    35    17    12   ar
