@<TRIPOS>MOLECULE
*****
 45 48 0 0 0
SMALL
GASTEIGER

@<TRIPOS>ATOM
      1 C          22.3474   19.2961    0.1893 C.3     1  UNL1        0.1086
      2 C          24.5740   20.5985   -0.1209 C.2     1  UNL1        0.2220
      3 O          25.2212   19.7412    0.9261 O.2     1  UNL1       -0.2751
      4 N          23.1371   20.3760   -0.4893 N.am    1  UNL1       -0.3030
      5 H          22.7123   20.9386   -1.1765 H       1  UNL1        0.1495
      6 C          26.3400   24.0860   -0.8056 C.3     1  UNL1        0.0172
      7 C          25.5502   23.0061   -0.1271 C.3     1  UNL1        0.0107
      8 C          25.3637   21.6783   -0.7994 C.3     1  UNL1        0.0765
      9 C          25.9668   21.4302   -2.1502 C.3     1  UNL1        0.0091
     10 C          26.7565   22.5100   -2.8287 C.3     1  UNL1        0.0005
     11 C          26.9431   23.8379   -2.1564 C.3     1  UNL1        0.0016
     12 C          26.5265   25.4138   -0.1333 C.3     1  UNL1        0.0603
     13 C          25.0490   25.6605   -0.2106 C.3     1  UNL1        0.0199
     14 C          28.0041   25.1671   -0.0561 C.3     1  UNL1        0.0199
     15 O          26.2702   25.6351    2.8475 O.2     1  UNL1       -0.2749
     16 C          26.5850   26.8523    2.0294 C.2     1  UNL1        0.2255
     17 N          26.7131   26.7417    0.5390 N.am    1  UNL1       -0.2827
     18 C          27.0279   27.9589   -0.2791 C.3     1  UNL1        0.0933
     19 C          27.2145   29.2867    0.3931 C.3     1  UNL1        0.0220
     20 C          27.0864   29.3973    1.8835 C.3     1  UNL1        0.0113
     21 C          26.7716   28.1801    2.7016 C.3     1  UNL1        0.0853
     22 C          22.0413   19.3987    1.6541 C.3     1  UNL1        0.1839
     23 O          22.9878   18.8149    2.6608 O.3     1  UNL1       -0.3775
     24 H          23.7405   18.4114    2.2009 H       1  UNL1        0.2106
     25 C          20.7887   20.0849    2.1123 C.3     1  UNL1        0.1339
     26 N          19.4535   19.4414    1.8813 N.4     1  UNL1        0.2597
     27 H          19.2157   18.9410    2.7377 H       1  UNL1        0.2040
     28 H          19.6038   18.8853    1.0395 H       1  UNL1        0.2040
     29 C          18.2649   20.2858    1.5289 C.3     1  UNL1        0.1298
     30 C          18.4412   21.5156    0.6883 C.ar    1  UNL1        0.0322
     31 C          18.8877   22.7997    1.3222 C.ar    1  UNL1       -0.0029
     32 C          19.0640   24.0294    0.4816 C.ar    1  UNL1       -0.0226
     33 C          18.7939   23.9751   -0.9929 C.ar    1  UNL1       -0.0043
     34 C          18.3475   22.6910   -1.6268 C.ar    1  UNL1       -0.0004
     35 C          18.1711   21.4613   -0.7862 C.ar    1  UNL1        0.0014
     36 C          19.5104   25.3136    1.1155 C.3     1  UNL1        0.0223
     37 C          20.9527   25.7206    1.0500 C.3     1  UNL1        0.0047
     38 C          18.5147   26.1906    1.8149 C.3     1  UNL1        0.0047
     39 C          21.8638   18.1138   -0.5970 C.3     1  UNL1        0.0486
     40 C          20.7444   18.2753   -1.5822 C.ar    1  UNL1       -0.0204
     41 C          19.3616   17.8138   -1.2286 C.ar    1  UNL1       -0.0042
     42 C          18.2422   17.9754   -2.2137 C.ar    1  UNL1       -0.0003
     43 C          18.5054   18.5984   -3.5527 C.ar    1  UNL1       -0.0000
     44 C          19.8881   19.0599   -3.9063 C.ar    1  UNL1       -0.0003
     45 C          21.0076   18.8984   -2.9210 C.ar    1  UNL1       -0.0042
@<TRIPOS>UNITY_ATOM_ATTR
26 1
charge 1
@<TRIPOS>BOND
     1    15    16    2
     2    16    17   am
     3    17    18    1
     4    18    19    1
     5    19    20    1
     6    20    21    1
     7    17    12    1
     8    12    13    1
     9    12    14    1
    10     6    12    1
    11     6     7    1
    12     7     8    1
    13     8     9    1
    14     9    10    1
    15    10    11    1
    16     8     2    1
    17     2     3    2
    18     2     4   am
    19     4     1    1
    20     1    22    1
    21    22    23    1
    22    22    25    1
    23    25    26    1
    24    26    29    1
    25    29    30    1
    26    30    31   ar
    27    31    32   ar
    28    32    33   ar
    29    33    34   ar
    30    34    35   ar
    31    32    36    1
    32    36    37    1
    33    36    38    1
    34     1    39    1
    35    39    40    1
    36    40    41   ar
    37    41    42   ar
    38    42    43   ar
    39    43    44   ar
    40    44    45   ar
    41    21    16    1
    42    11     6    1
    43    35    30   ar
    44    45    40   ar
    45     4     5    1
    46    23    24    1
    47    26    27    1
    48    26    28    1
@<TRIPOS>MOLECULE
*****
 45 48 0 0 0
SMALL
GASTEIGER

@<TRIPOS>ATOM
      1 C          21.8945   26.0370    1.7454 C.3     1  UNL1        0.1086
      2 C          20.1133   24.1951    1.3159 C.2     1  UNL1        0.2220
      3 O          19.3616   25.1317    0.4170 O.2     1  UNL1       -0.2751
      4 N          21.3797   24.6477    1.9801 N.am    1  UNL1       -0.3030
      5 H          21.8730   24.0331    2.5700 H       1  UNL1        0.1495
      6 C          19.9779   20.2357    1.5493 C.3     1  UNL1        0.0172
      7 C          20.4927   21.6249    1.3147 C.3     1  UNL1        0.0107
      8 C          19.5984   22.8059    1.5505 C.3     1  UNL1        0.0765
      9 C          18.1894   22.5977    2.0208 C.3     1  UNL1        0.0091
     10 C          17.6746   21.2085    2.2554 C.3     1  UNL1        0.0005
     11 C          18.5688   20.0274    2.0196 C.3     1  UNL1        0.0016
     12 C          20.8721   19.0547    1.3135 C.3     1  UNL1        0.0603
     13 C          20.3826   18.4299    2.5863 C.3     1  UNL1        0.0199
     14 C          21.3617   19.6795    0.0408 C.3     1  UNL1        0.0199
     15 O          23.6488   19.0253    2.4490 O.2     1  UNL1       -0.2749
     16 C          23.1547   17.8590    1.6454 C.2     1  UNL1        0.2255
     17 N          21.7664   17.8737    1.0777 N.am    1  UNL1       -0.2827
     18 C          21.2723   16.7074    0.2741 C.3     1  UNL1        0.0933
     19 C          22.1665   15.5265    0.0383 C.3     1  UNL1        0.0220
     20 C          23.5548   15.5118    0.6060 C.3     1  UNL1        0.0113
     21 C          24.0489   16.6780    1.4096 C.3     1  UNL1        0.0853
     22 C          21.5707   27.1312    2.7190 C.3     1  UNL1        0.1839
     23 O          21.7388   26.8991    4.1914 O.3     1  UNL1       -0.3775
     24 H          22.0621   25.9970    4.3416 H       1  UNL1        0.2106
     25 C          21.0789   28.4576    2.2202 C.3     1  UNL1        0.1339
     26 N          22.0080   29.6345    2.1780 N.4     1  UNL1        0.2597
     27 H          22.7005   29.4894    2.9128 H       1  UNL1        0.2040
     28 H          21.3803   30.4324    2.2761 H       1  UNL1        0.2040
     29 C          22.7676   29.9457    0.9226 C.3     1  UNL1        0.1298
     30 C          24.2655   29.8664    0.9130 C.ar    1  UNL1        0.0322
     31 C          25.0282   30.2348   -0.3249 C.ar    1  UNL1       -0.0029
     32 C          26.5261   30.1555   -0.3344 C.ar    1  UNL1       -0.0226
     33 C          27.2612   29.7077    0.8941 C.ar    1  UNL1       -0.0043
     34 C          26.4985   29.3393    2.1320 C.ar    1  UNL1       -0.0004
     35 C          25.0007   29.4186    2.1415 C.ar    1  UNL1        0.0014
     36 C          27.2888   30.5239   -1.5723 C.3     1  UNL1        0.0223
     37 C          28.1590   31.7457   -1.5813 C.3     1  UNL1        0.0047
     38 C          27.1814   29.6706   -2.8012 C.3     1  UNL1        0.0047
     39 C          22.7331   26.3320    0.5372 C.3     1  UNL1        0.0486
     40 C          24.2249   26.1931    0.6076 C.ar    1  UNL1       -0.0204
     41 C          25.0681   26.5469   -0.5814 C.ar    1  UNL1       -0.0042
     42 C          26.5600   26.4081   -0.5110 C.ar    1  UNL1       -0.0003
     43 C          27.2088   25.9154    0.7485 C.ar    1  UNL1       -0.0000
     44 C          26.3656   25.5616    1.9376 C.ar    1  UNL1       -0.0003
     45 C          24.8737   25.7005    1.8672 C.ar    1  UNL1       -0.0042
@<TRIPOS>UNITY_ATOM_ATTR
26 1
charge 1
@<TRIPOS>BOND
     1    15    16    2
     2    16    17   am
     3    17    18    1
     4    18    19    1
     5    19    20    1
     6    20    21    1
     7    17    12    1
     8    12    13    1
     9    12    14    1
    10     6    12    1
    11     6     7    1
    12     7     8    1
    13     8     9    1
    14     9    10    1
    15    10    11    1
    16     8     2    1
    17     2     3    2
    18     2     4   am
    19     4     1    1
    20     1    22    1
    21    22    23    1
    22    22    25    1
    23    25    26    1
    24    26    29    1
    25    29    30    1
    26    30    31   ar
    27    31    32   ar
    28    32    33   ar
    29    33    34   ar
    30    34    35   ar
    31    32    36    1
    32    36    37    1
    33    36    38    1
    34     1    39    1
    35    39    40    1
    36    40    41   ar
    37    41    42   ar
    38    42    43   ar
    39    43    44   ar
    40    44    45   ar
    41    21    16    1
    42    11     6    1
    43    35    30   ar
    44    45    40   ar
    45     4     5    1
    46    23    24    1
    47    26    27    1
    48    26    28    1
@<TRIPOS>MOLECULE
*****
 45 48 0 0 0
SMALL
GASTEIGER

@<TRIPOS>ATOM
      1 C          23.7596   25.3850    1.6966 C.3     1  UNL1        0.1086
      2 C          23.6374   27.9762    1.5515 C.2     1  UNL1        0.2220
      3 O          23.9117   28.0715    3.0232 O.2     1  UNL1       -0.2751
      4 N          23.5614   26.6330    0.8882 N.am    1  UNL1       -0.3030
      5 H          23.3814   26.5704   -0.0777 H       1  UNL1        0.1495
      6 C          24.1632   30.7801   -1.2073 C.3     1  UNL1        0.0172
      7 C          24.3614   29.5322   -0.3990 C.3     1  UNL1        0.0107
      8 C          23.4392   29.2241    0.7432 C.3     1  UNL1        0.0765
      9 C          22.3188   30.1639    1.0771 C.3     1  UNL1        0.0091
     10 C          22.1206   31.4118    0.2688 C.3     1  UNL1        0.0005
     11 C          23.0428   31.7199   -0.8735 C.3     1  UNL1        0.0016
     12 C          25.0854   31.0882   -2.3495 C.3     1  UNL1        0.0603
     13 C          26.1976   30.3691   -1.6455 C.3     1  UNL1        0.0199
     14 C          23.9731   31.8073   -3.0536 C.3     1  UNL1        0.0199
     15 O          25.3795   29.1362   -4.6086 O.2     1  UNL1       -0.2749
     16 C          26.1546   30.4204   -4.6213 C.2     1  UNL1        0.2255
     17 N          26.0076   31.3963   -3.4918 N.am    1  UNL1       -0.2827
     18 C          26.7827   32.6805   -3.5044 C.3     1  UNL1        0.0933
     19 C          27.7049   32.9886   -4.6466 C.3     1  UNL1        0.0220
     20 C          27.8519   32.0127   -5.7761 C.3     1  UNL1        0.0113
     21 C          27.0768   30.7285   -5.7634 C.3     1  UNL1        0.0853
     22 C          22.5775   24.6880    2.3022 C.3     1  UNL1        0.1839
     23 O          22.1720   23.3314    1.8070 O.3     1  UNL1       -0.3775
     24 H          22.7741   23.0522    1.0996 H       1  UNL1        0.2106
     25 C          21.8009   25.3476    3.4030 C.3     1  UNL1        0.1339
     26 N          20.7273   26.3416    3.0720 N.4     1  UNL1        0.2597
     27 H          21.1443   27.2677    3.1661 H       1  UNL1        0.2040
     28 H          19.9755   26.0982    3.7169 H       1  UNL1        0.2040
     29 C          20.0570   26.3028    1.7307 C.3     1  UNL1        0.1298
     30 C          19.1466   25.1634    1.3799 C.ar    1  UNL1        0.0322
     31 C          19.1779   24.5757    0.0002 C.ar    1  UNL1       -0.0029
     32 C          18.2675   23.4364   -0.3506 C.ar    1  UNL1       -0.0226
     33 C          17.3257   22.8848    0.6784 C.ar    1  UNL1       -0.0043
     34 C          17.2944   23.4724    2.0581 C.ar    1  UNL1       -0.0004
     35 C          18.2048   24.6118    2.4088 C.ar    1  UNL1        0.0014
     36 C          18.2989   22.8487   -1.7303 C.3     1  UNL1        0.0223
     37 C          18.3192   23.7500   -2.9292 C.3     1  UNL1        0.0047
     38 C          18.3098   21.3597   -1.9112 C.3     1  UNL1        0.0047
     39 C          25.1400   24.8341    1.8994 C.3     1  UNL1        0.0486
     40 C          26.0301   24.5874    0.7176 C.ar    1  UNL1       -0.0204
     41 C          25.6759   23.5240   -0.2792 C.ar    1  UNL1       -0.0042
     42 C          26.5660   23.2773   -1.4610 C.ar    1  UNL1       -0.0003
     43 C          27.8105   24.0941   -1.6461 C.ar    1  UNL1       -0.0000
     44 C          28.1648   25.1575   -0.6493 C.ar    1  UNL1       -0.0003
     45 C          27.2745   25.4042    0.5325 C.ar    1  UNL1       -0.0042
@<TRIPOS>UNITY_ATOM_ATTR
26 1
charge 1
@<TRIPOS>BOND
     1    15    16    2
     2    16    17   am
     3    17    18    1
     4    18    19    1
     5    19    20    1
     6    20    21    1
     7    17    12    1
     8    12    13    1
     9    12    14    1
    10     6    12    1
    11     6     7    1
    12     7     8    1
    13     8     9    1
    14     9    10    1
    15    10    11    1
    16     8     2    1
    17     2     3    2
    18     2     4   am
    19     4     1    1
    20     1    22    1
    21    22    23    1
    22    22    25    1
    23    25    26    1
    24    26    29    1
    25    29    30    1
    26    30    31   ar
    27    31    32   ar
    28    32    33   ar
    29    33    34   ar
    30    34    35   ar
    31    32    36    1
    32    36    37    1
    33    36    38    1
    34     1    39    1
    35    39    40    1
    36    40    41   ar
    37    41    42   ar
    38    42    43   ar
    39    43    44   ar
    40    44    45   ar
    41    21    16    1
    42    11     6    1
    43    35    30   ar
    44    45    40   ar
    45     4     5    1
    46    23    24    1
    47    26    27    1
    48    26    28    1
@<TRIPOS>MOLECULE
*****
 45 48 0 0 0
SMALL
GASTEIGER

@<TRIPOS>ATOM
      1 C          21.8429   19.1128    0.3942 C.3     1  UNL1        0.1086
      2 C          24.1125   20.3408    0.0930 C.2     1  UNL1        0.2220
      3 O          24.7798   19.3224    0.9691 O.2     1  UNL1       -0.2751
      4 N          22.6441   20.2360   -0.1945 N.am    1  UNL1       -0.3030
      5 H          22.2061   20.9045   -0.7695 H       1  UNL1        0.1495
      6 C          25.8098   23.8991   -0.3631 C.3     1  UNL1        0.0172
      7 C          25.0086   22.7758    0.2255 C.3     1  UNL1        0.0107
      8 C          24.9137   21.4640   -0.4956 C.3     1  UNL1        0.0765
      9 C          25.6200   21.2754   -1.8054 C.3     1  UNL1        0.0091
     10 C          26.4212   22.3986   -2.3940 C.3     1  UNL1        0.0005
     11 C          26.5161   23.7105   -1.6728 C.3     1  UNL1        0.0016
     12 C          25.9046   25.2109    0.3581 C.3     1  UNL1        0.0603
     13 C          26.1432   24.4843    1.6485 C.3     1  UNL1        0.0199
     14 C          25.6660   25.9376   -0.9322 C.3     1  UNL1        0.0199
     15 O          23.4360   26.4774    1.4991 O.2     1  UNL1       -0.2749
     16 C          24.7652   27.1560    1.6498 C.2     1  UNL1        0.2255
     17 N          25.9995   26.5228    1.0793 N.am    1  UNL1       -0.2827
     18 C          27.3287   27.2014    1.2300 C.3     1  UNL1        0.0933
     19 C          27.4236   28.5133    1.9511 C.3     1  UNL1        0.0220
     20 C          26.1893   29.1465    2.5216 C.3     1  UNL1        0.0113
     21 C          24.8601   28.4678    2.3709 C.3     1  UNL1        0.0853
     22 C          21.3628   19.1971    1.8127 C.3     1  UNL1        0.1839
     23 O          22.3500   19.1677    2.9416 O.3     1  UNL1       -0.3775
     24 H          23.2483   19.0917    2.5837 H       1  UNL1        0.2106
     25 C          19.8954   19.3107    2.1023 C.3     1  UNL1        0.1339
     26 N          19.4119   20.2473    3.1696 N.4     1  UNL1        0.2597
     27 H          20.1861   20.8766    3.3820 H       1  UNL1        0.2040
     28 H          19.1020   19.6185    3.9106 H       1  UNL1        0.2040
     29 C          18.2089   21.1086    2.9229 C.3     1  UNL1        0.1298
     30 C          18.2898   22.2498    1.9527 C.ar    1  UNL1        0.0322
     31 C          18.2850   21.9813    0.4770 C.ar    1  UNL1       -0.0029
     32 C          18.3658   23.1225   -0.4932 C.ar    1  UNL1       -0.0226
     33 C          18.4515   24.5321    0.0125 C.ar    1  UNL1       -0.0043
     34 C          18.4564   24.8006    1.4882 C.ar    1  UNL1       -0.0004
     35 C          18.3755   23.6594    2.4583 C.ar    1  UNL1        0.0014
     36 C          18.3610   22.8541   -1.9690 C.3     1  UNL1        0.0223
     37 C          18.4353   21.4439   -2.4751 C.3     1  UNL1        0.0047
     38 C          18.2818   23.9957   -2.9387 C.3     1  UNL1        0.0047
     39 C          21.5219   17.9052   -0.4358 C.3     1  UNL1        0.0486
     40 C          20.5941   18.0261   -1.6082 C.ar    1  UNL1       -0.0204
     41 C          19.1422   17.6822   -1.4542 C.ar    1  UNL1       -0.0042
     42 C          18.2144   17.8030   -2.6266 C.ar    1  UNL1       -0.0003
     43 C          18.7385   18.2677   -3.9531 C.ar    1  UNL1       -0.0000
     44 C          20.1904   18.6115   -4.1071 C.ar    1  UNL1       -0.0003
     45 C          21.1182   18.4907   -2.9346 C.ar    1  UNL1       -0.0042
@<TRIPOS>UNITY_ATOM_ATTR
26 1
charge 1
@<TRIPOS>BOND
     1    15    16    2
     2    16    17   am
     3    17    18    1
     4    18    19    1
     5    19    20    1
     6    20    21    1
     7    17    12    1
     8    12    13    1
     9    12    14    1
    10     6    12    1
    11     6     7    1
    12     7     8    1
    13     8     9    1
    14     9    10    1
    15    10    11    1
    16     8     2    1
    17     2     3    2
    18     2     4   am
    19     4     1    1
    20     1    22    1
    21    22    23    1
    22    22    25    1
    23    25    26    1
    24    26    29    1
    25    29    30    1
    26    30    31   ar
    27    31    32   ar
    28    32    33   ar
    29    33    34   ar
    30    34    35   ar
    31    32    36    1
    32    36    37    1
    33    36    38    1
    34     1    39    1
    35    39    40    1
    36    40    41   ar
    37    41    42   ar
    38    42    43   ar
    39    43    44   ar
    40    44    45   ar
    41    21    16    1
    42    11     6    1
    43    35    30   ar
    44    45    40   ar
    45     4     5    1
    46    23    24    1
    47    26    27    1
    48    26    28    1
@<TRIPOS>MOLECULE
*****
 45 48 0 0 0
SMALL
GASTEIGER

@<TRIPOS>ATOM
      1 C          23.5227   27.3525    1.5408 C.3     1  UNL1        0.1086
      2 C          21.4955   25.8690    2.2042 C.2     1  UNL1        0.2220
      3 O          21.8585   26.0204    3.6517 O.2     1  UNL1       -0.2751
      4 N          22.3276   26.5351    1.1487 N.am    1  UNL1       -0.3030
      5 H          22.0893   26.4358    0.1986 H       1  UNL1        0.1495
      6 C          19.2611   22.7721    1.1243 C.3     1  UNL1        0.0172
      7 C          20.4562   23.5895    1.5164 C.3     1  UNL1        0.0107
      8 C          20.3004   25.0517    1.8121 C.3     1  UNL1        0.0765
      9 C          18.9496   25.6966    1.7159 C.3     1  UNL1        0.0091
     10 C          17.7545   24.8793    1.3239 C.3     1  UNL1        0.0005
     11 C          17.9102   23.4170    1.0281 C.3     1  UNL1        0.0016
     12 C          19.4169   21.3098    0.8286 C.3     1  UNL1        0.0603
     13 C          17.9269   21.1426    0.8706 C.3     1  UNL1        0.0199
     14 C          20.9069   21.4771    0.7866 C.3     1  UNL1        0.0199
     15 O          20.0445   19.3894    3.0462 O.2     1  UNL1       -0.2749
     16 C          19.8865   18.8873    1.6416 C.2     1  UNL1        0.2255
     17 N          19.5727   19.8475    0.5328 N.am    1  UNL1       -0.2827
     18 C          19.4147   19.3454   -0.8718 C.3     1  UNL1        0.0933
     19 C          19.5706   17.8832   -1.1677 C.3     1  UNL1        0.0220
     20 C          19.8844   16.9230   -0.0588 C.3     1  UNL1        0.0113
     21 C          20.0424   17.4251    1.3458 C.3     1  UNL1        0.0853
     22 C          24.8931   26.7438    1.5019 C.3     1  UNL1        0.1839
     23 O          25.8196   26.9069    2.6702 O.3     1  UNL1       -0.3775
     24 H          25.3807   27.4279    3.3606 H       1  UNL1        0.2106
     25 C          25.3369   25.9721    0.2946 C.3     1  UNL1        0.1339
     26 N          26.3203   24.8491    0.4422 N.4     1  UNL1        0.2597
     27 H          26.9212   25.0857    1.2317 H       1  UNL1        0.2040
     28 H          26.7555   24.7960   -0.4788 H       1  UNL1        0.2040
     29 C          25.8318   23.4499    0.6738 C.3     1  UNL1        0.1298
     30 C          25.6211   22.5268   -0.4896 C.ar    1  UNL1        0.0322
     31 C          24.6916   21.3567   -0.3598 C.ar    1  UNL1       -0.0029
     32 C          24.4809   20.4336   -1.5232 C.ar    1  UNL1       -0.0226
     33 C          25.1998   20.6807   -2.8164 C.ar    1  UNL1       -0.0043
     34 C          26.1293   21.8507   -2.9461 C.ar    1  UNL1       -0.0004
     35 C          26.3399   22.7738   -1.7828 C.ar    1  UNL1        0.0014
     36 C          23.5514   19.2635   -1.3935 C.3     1  UNL1        0.0223
     37 C          22.9149   18.6722   -2.6163 C.3     1  UNL1        0.0047
     38 C          23.2584   18.6847   -0.0411 C.3     1  UNL1        0.0047
     39 C          23.3473   28.7785    1.9718 C.3     1  UNL1        0.0486
     40 C          22.8303   29.7975    1.0001 C.ar    1  UNL1       -0.0204
     41 C          23.4991   29.9713   -0.3312 C.ar    1  UNL1       -0.0042
     42 C          22.9820   30.9904   -1.3029 C.ar    1  UNL1       -0.0003
     43 C          21.7961   31.8356   -0.9433 C.ar    1  UNL1       -0.0000
     44 C          21.1274   31.6618    0.3881 C.ar    1  UNL1       -0.0003
     45 C          21.6445   30.6427    1.3598 C.ar    1  UNL1       -0.0042
@<TRIPOS>UNITY_ATOM_ATTR
26 1
charge 1
@<TRIPOS>BOND
     1    15    16    2
     2    16    17   am
     3    17    18    1
     4    18    19    1
     5    19    20    1
     6    20    21    1
     7    17    12    1
     8    12    13    1
     9    12    14    1
    10     6    12    1
    11     6     7    1
    12     7     8    1
    13     8     9    1
    14     9    10    1
    15    10    11    1
    16     8     2    1
    17     2     3    2
    18     2     4   am
    19     4     1    1
    20     1    22    1
    21    22    23    1
    22    22    25    1
    23    25    26    1
    24    26    29    1
    25    29    30    1
    26    30    31   ar
    27    31    32   ar
    28    32    33   ar
    29    33    34   ar
    30    34    35   ar
    31    32    36    1
    32    36    37    1
    33    36    38    1
    34     1    39    1
    35    39    40    1
    36    40    41   ar
    37    41    42   ar
    38    42    43   ar
    39    43    44   ar
    40    44    45   ar
    41    21    16    1
    42    11     6    1
    43    35    30   ar
    44    45    40   ar
    45     4     5    1
    46    23    24    1
    47    26    27    1
    48    26    28    1
@<TRIPOS>MOLECULE
*****
 45 48 0 0 0
SMALL
GASTEIGER

@<TRIPOS>ATOM
      1 C          22.7484   18.4735   -0.4080 C.3     1  UNL1        0.1086
      2 C          24.8721   19.8412   -1.0158 C.2     1  UNL1        0.2220
      3 O          25.7070   18.6016   -0.8876 O.2     1  UNL1       -0.2751
      4 N          23.3928   19.7771   -0.7760 N.am    1  UNL1       -0.3030
      5 H          22.8447   20.5906   -0.8602 H       1  UNL1        0.1495
      6 C          26.0170   23.6374   -0.8488 C.3     1  UNL1        0.0172
      7 C          25.3726   22.3337   -0.4808 C.3     1  UNL1        0.0107
      8 C          25.5165   21.1447   -1.3838 C.3     1  UNL1        0.0765
      9 C          26.3047   21.2592   -2.6548 C.3     1  UNL1        0.0091
     10 C          26.9491   22.5628   -3.0229 C.3     1  UNL1        0.0005
     11 C          26.8053   23.7519   -2.1198 C.3     1  UNL1        0.0016
     12 C          25.8731   24.8264    0.0542 C.3     1  UNL1        0.0603
     13 C          26.0175   25.7404   -1.1263 C.3     1  UNL1        0.0199
     14 C          25.7287   23.9124    1.2347 C.3     1  UNL1        0.0199
     15 O          23.1600   25.9976    0.5715 O.2     1  UNL1       -0.2749
     16 C          24.3727   26.6010    1.2159 C.2     1  UNL1        0.2255
     17 N          25.7292   26.0154    0.9573 N.am    1  UNL1       -0.2827
     18 C          26.9419   26.6189    1.6017 C.3     1  UNL1        0.0933
     19 C          26.7980   27.8079    2.5048 C.3     1  UNL1        0.0220
     20 C          25.4415   28.3934    2.7634 C.3     1  UNL1        0.0113
     21 C          24.2288   27.7900    2.1190 C.3     1  UNL1        0.0853
     22 C          22.8924   17.9321    0.9834 C.3     1  UNL1        0.1839
     23 O          24.2380   17.9151    1.6460 O.3     1  UNL1       -0.3775
     24 H          24.9003   18.2866    1.0425 H       1  UNL1        0.2106
     25 C          21.6909   17.4077    1.7123 C.3     1  UNL1        0.1339
     26 N          20.8904   18.3207    2.5931 N.4     1  UNL1        0.2597
     27 H          21.1311   18.0862    3.5562 H       1  UNL1        0.2040
     28 H          19.9298   18.1510    2.2953 H       1  UNL1        0.2040
     29 C          21.0350   19.8077    2.4604 C.3     1  UNL1        0.1298
     30 C          19.8419   20.6496    2.1172 C.ar    1  UNL1        0.0322
     31 C          19.9971   21.8385    1.2159 C.ar    1  UNL1       -0.0029
     32 C          18.8040   22.6803    0.8727 C.ar    1  UNL1       -0.0226
     33 C          17.4557   22.3333    1.4309 C.ar    1  UNL1       -0.0043
     34 C          17.3004   21.1444    2.3322 C.ar    1  UNL1       -0.0004
     35 C          18.4935   20.3026    2.6754 C.ar    1  UNL1        0.0014
     36 C          18.9592   23.8693   -0.0287 C.3     1  UNL1        0.0223
     37 C          19.3992   25.1870    0.5371 C.3     1  UNL1        0.0047
     38 C          18.6745   23.7404   -1.4958 C.3     1  UNL1        0.0047
     39 C          21.9599   17.7113   -1.4314 C.3     1  UNL1        0.0486
     40 C          20.5495   18.1145   -1.7444 C.ar    1  UNL1       -0.0204
     41 C          20.0323   19.4475   -1.2908 C.ar    1  UNL1       -0.0042
     42 C          18.6219   19.8507   -1.6038 C.ar    1  UNL1       -0.0003
     43 C          17.7286   18.9210   -2.3705 C.ar    1  UNL1       -0.0000
     44 C          18.2458   17.5881   -2.8241 C.ar    1  UNL1       -0.0003
     45 C          19.6563   17.1849   -2.5111 C.ar    1  UNL1       -0.0042
@<TRIPOS>UNITY_ATOM_ATTR
26 1
charge 1
@<TRIPOS>BOND
     1    15    16    2
     2    16    17   am
     3    17    18    1
     4    18    19    1
     5    19    20    1
     6    20    21    1
     7    17    12    1
     8    12    13    1
     9    12    14    1
    10     6    12    1
    11     6     7    1
    12     7     8    1
    13     8     9    1
    14     9    10    1
    15    10    11    1
    16     8     2    1
    17     2     3    2
    18     2     4   am
    19     4     1    1
    20     1    22    1
    21    22    23    1
    22    22    25    1
    23    25    26    1
    24    26    29    1
    25    29    30    1
    26    30    31   ar
    27    31    32   ar
    28    32    33   ar
    29    33    34   ar
    30    34    35   ar
    31    32    36    1
    32    36    37    1
    33    36    38    1
    34     1    39    1
    35    39    40    1
    36    40    41   ar
    37    41    42   ar
    38    42    43   ar
    39    43    44   ar
    40    44    45   ar
    41    21    16    1
    42    11     6    1
    43    35    30   ar
    44    45    40   ar
    45     4     5    1
    46    23    24    1
    47    26    27    1
    48    26    28    1
@<TRIPOS>MOLECULE
*****
 45 48 0 0 0
SMALL
GASTEIGER

@<TRIPOS>ATOM
      1 C          23.8371   27.0604    1.6755 C.3     1  UNL1        0.1086
      2 C          21.5563   25.9867    2.3041 C.2     1  UNL1        0.2220
      3 O          21.6856   26.5278    3.6972 O.2     1  UNL1       -0.2751
      4 N          22.6320   26.2530    1.2933 N.am    1  UNL1       -0.3030
      5 H          22.5472   25.8979    0.3790 H       1  UNL1        0.1495
      6 C          19.2867   22.9076    1.2469 C.3     1  UNL1        0.0172
      7 C          20.4917   23.7150    1.6291 C.3     1  UNL1        0.0107
      8 C          20.3512   25.1794    1.9220 C.3     1  UNL1        0.0765
      9 C          19.0058   25.8364    1.8327 C.3     1  UNL1        0.0091
     10 C          17.8007   25.0291    1.4506 C.3     1  UNL1        0.0005
     11 C          17.9412   23.5646    1.1576 C.3     1  UNL1        0.0016
     12 C          19.4271   21.4432    0.9539 C.3     1  UNL1        0.0603
     13 C          17.9344   21.2968    0.9704 C.3     1  UNL1        0.0199
     14 C          20.9198   21.5897    0.9375 C.3     1  UNL1        0.0199
     15 O          19.9541   19.5106    3.1871 O.2     1  UNL1       -0.2749
     16 C          19.8312   19.0125    1.7776 C.2     1  UNL1        0.2255
     17 N          19.5677   19.9788    0.6610 N.am    1  UNL1       -0.2827
     18 C          19.4447   19.4807   -0.7485 C.3     1  UNL1        0.0933
     19 C          19.5852   18.0164   -1.0415 C.3     1  UNL1        0.0220
     20 C          19.8487   17.0501    0.0751 C.3     1  UNL1        0.0113
     21 C          19.9717   17.5481    1.4846 C.3     1  UNL1        0.0853
     22 C          25.1528   26.3792    1.9095 C.3     1  UNL1        0.1839
     23 O          25.2940   24.9095    1.6453 O.3     1  UNL1       -0.3775
     24 H          24.4477   24.5548    1.3305 H       1  UNL1        0.2106
     25 C          26.3275   27.1678    2.4078 C.3     1  UNL1        0.1339
     26 N          27.4204   27.5651    1.4603 N.4     1  UNL1        0.2597
     27 H          28.1998   26.9283    1.6262 H       1  UNL1        0.2040
     28 H          27.5678   28.5518    1.6729 H       1  UNL1        0.2040
     29 C          27.1681   27.5648   -0.0183 C.3     1  UNL1        0.1298
     30 C          27.1645   28.8578   -0.7787 C.ar    1  UNL1        0.0322
     31 C          27.0134   28.8498   -2.2711 C.ar    1  UNL1       -0.0029
     32 C          27.0098   30.1427   -3.0315 C.ar    1  UNL1       -0.0226
     33 C          27.1572   31.4437   -2.2995 C.ar    1  UNL1       -0.0043
     34 C          27.3082   31.4518   -0.8072 C.ar    1  UNL1       -0.0004
     35 C          27.3119   30.1588   -0.0468 C.ar    1  UNL1        0.0014
     36 C          26.8588   30.1347   -4.5239 C.3     1  UNL1        0.0223
     37 C          25.5112   29.9015   -5.1400 C.3     1  UNL1        0.0047
     38 C          28.0552   30.3599   -5.4000 C.3     1  UNL1        0.0047
     39 C          23.7263   28.5489    1.8237 C.3     1  UNL1        0.0486
     40 C          23.6528   29.4206    0.6052 C.ar    1  UNL1       -0.0204
     41 C          23.6068   28.7996   -0.7594 C.ar    1  UNL1       -0.0042
     42 C          23.5332   29.6712   -1.9780 C.ar    1  UNL1       -0.0003
     43 C          23.5057   31.1639   -1.8318 C.ar    1  UNL1       -0.0000
     44 C          23.5517   31.7848   -0.4672 C.ar    1  UNL1       -0.0003
     45 C          23.6252   30.9131    0.7514 C.ar    1  UNL1       -0.0042
@<TRIPOS>UNITY_ATOM_ATTR
26 1
charge 1
@<TRIPOS>BOND
     1    15    16    2
     2    16    17   am
     3    17    18    1
     4    18    19    1
     5    19    20    1
     6    20    21    1
     7    17    12    1
     8    12    13    1
     9    12    14    1
    10     6    12    1
    11     6     7    1
    12     7     8    1
    13     8     9    1
    14     9    10    1
    15    10    11    1
    16     8     2    1
    17     2     3    2
    18     2     4   am
    19     4     1    1
    20     1    22    1
    21    22    23    1
    22    22    25    1
    23    25    26    1
    24    26    29    1
    25    29    30    1
    26    30    31   ar
    27    31    32   ar
    28    32    33   ar
    29    33    34   ar
    30    34    35   ar
    31    32    36    1
    32    36    37    1
    33    36    38    1
    34     1    39    1
    35    39    40    1
    36    40    41   ar
    37    41    42   ar
    38    42    43   ar
    39    43    44   ar
    40    44    45   ar
    41    21    16    1
    42    11     6    1
    43    35    30   ar
    44    45    40   ar
    45     4     5    1
    46    23    24    1
    47    26    27    1
    48    26    28    1
@<TRIPOS>MOLECULE
*****
 45 48 0 0 0
SMALL
GASTEIGER

@<TRIPOS>ATOM
      1 C          17.9289   22.3918   -0.2242 C.3     1  UNL1        0.1086
      2 C          19.7201   23.9575    0.8200 C.2     1  UNL1        0.2220
      3 O          20.7079   22.8286    0.8181 O.2     1  UNL1       -0.2751
      4 N          18.3306   23.7391    0.2989 N.am    1  UNL1       -0.3030
      5 H          17.6822   24.4800    0.3001 H       1  UNL1        0.1495
      6 C          21.9324   27.1354    1.6896 C.3     1  UNL1        0.0172
      7 C          21.5306   25.7882    1.1665 C.3     1  UNL1        0.0107
      8 C          20.1217   25.3047    1.3431 C.3     1  UNL1        0.0765
      9 C          19.1146   26.1684    2.0428 C.3     1  UNL1        0.0091
     10 C          19.5162   27.5156    2.5659 C.3     1  UNL1        0.0005
     11 C          20.9252   27.9992    2.3893 C.3     1  UNL1        0.0016
     12 C          23.3413   27.6189    1.5130 C.3     1  UNL1        0.0603
     13 C          23.8493   26.2299    1.7628 C.3     1  UNL1        0.0199
     14 C          22.8333   29.0080    1.2633 C.3     1  UNL1        0.0199
     15 O          24.8465   28.7412    3.8529 O.2     1  UNL1       -0.2749
     16 C          25.5028   28.6636    2.5063 C.2     1  UNL1        0.2255
     17 N          24.7502   28.1025    1.3364 N.am    1  UNL1       -0.2827
     18 C          25.4065   28.0249   -0.0101 C.3     1  UNL1        0.0933
     19 C          26.8154   28.5084   -0.1868 C.3     1  UNL1        0.0220
     20 C          27.5680   29.0695    0.9831 C.3     1  UNL1        0.0113
     21 C          26.9117   29.1471    2.3297 C.3     1  UNL1        0.0853
     22 C          18.1986   22.0320   -1.6552 C.3     1  UNL1        0.1839
     23 O          18.0598   23.0705   -2.7287 O.3     1  UNL1       -0.3775
     24 H          17.7913   23.9132   -2.3305 H       1  UNL1        0.2106
     25 C          18.6069   20.6337   -2.0128 C.3     1  UNL1        0.1339
     26 N          17.5642   19.6155   -2.3681 N.4     1  UNL1        0.2597
     27 H          16.9447   20.0539   -3.0495 H       1  UNL1        0.2040
     28 H          17.1642   19.3642   -1.4641 H       1  UNL1        0.2040
     29 C          17.9736   18.2922   -2.9437 C.3     1  UNL1        0.1298
     30 C          18.5199   17.2209   -2.0469 C.ar    1  UNL1        0.0322
     31 C          19.8136   17.4390   -1.3199 C.ar    1  UNL1       -0.0029
     32 C          20.3598   16.3678   -0.4232 C.ar    1  UNL1       -0.0226
     33 C          19.6122   15.0785   -0.2535 C.ar    1  UNL1       -0.0043
     34 C          18.3184   14.8604   -0.9805 C.ar    1  UNL1       -0.0004
     35 C          17.7723   15.9316   -1.8772 C.ar    1  UNL1        0.0014
     36 C          21.6536   16.5858    0.3038 C.3     1  UNL1        0.0223
     37 C          22.5448   17.7304   -0.0780 C.3     1  UNL1        0.0047
     38 C          22.0562   15.6594    1.4127 C.3     1  UNL1        0.0047
     39 C          17.2576   21.4044    0.6837 C.3     1  UNL1        0.0486
     40 C          18.0559   20.6838    1.7293 C.ar    1  UNL1       -0.0204
     41 C          17.6202   20.7218    3.1641 C.ar    1  UNL1       -0.0042
     42 C          18.4185   20.0012    4.2097 C.ar    1  UNL1       -0.0003
     43 C          19.6526   19.2424    3.8205 C.ar    1  UNL1       -0.0000
     44 C          20.0883   19.2044    2.3857 C.ar    1  UNL1       -0.0003
     45 C          19.2899   19.9251    1.3401 C.ar    1  UNL1       -0.0042
@<TRIPOS>UNITY_ATOM_ATTR
26 1
charge 1
@<TRIPOS>BOND
     1    15    16    2
     2    16    17   am
     3    17    18    1
     4    18    19    1
     5    19    20    1
     6    20    21    1
     7    17    12    1
     8    12    13    1
     9    12    14    1
    10     6    12    1
    11     6     7    1
    12     7     8    1
    13     8     9    1
    14     9    10    1
    15    10    11    1
    16     8     2    1
    17     2     3    2
    18     2     4   am
    19     4     1    1
    20     1    22    1
    21    22    23    1
    22    22    25    1
    23    25    26    1
    24    26    29    1
    25    29    30    1
    26    30    31   ar
    27    31    32   ar
    28    32    33   ar
    29    33    34   ar
    30    34    35   ar
    31    32    36    1
    32    36    37    1
    33    36    38    1
    34     1    39    1
    35    39    40    1
    36    40    41   ar
    37    41    42   ar
    38    42    43   ar
    39    43    44   ar
    40    44    45   ar
    41    21    16    1
    42    11     6    1
    43    35    30   ar
    44    45    40   ar
    45     4     5    1
    46    23    24    1
    47    26    27    1
    48    26    28    1
@<TRIPOS>MOLECULE
*****
 45 48 0 0 0
SMALL
GASTEIGER

@<TRIPOS>ATOM
      1 C          22.1829   19.8047    0.8087 C.3     1  UNL1        0.1086
      2 C          24.2182   20.4823   -0.6571 C.2     1  UNL1        0.2220
      3 O          24.3606   19.0613   -1.1161 O.2     1  UNL1       -0.2751
      4 N          23.1294   20.8540    0.3053 N.am    1  UNL1       -0.3030
      5 H          23.0359   21.7866    0.6065 H       1  UNL1        0.1495
      6 C          26.2923   23.8572   -0.8975 C.3     1  UNL1        0.0172
      7 C          25.3458   22.8080   -0.3940 C.3     1  UNL1        0.0107
      8 C          25.1647   21.5314   -1.1605 C.3     1  UNL1        0.0765
      9 C          25.9299   21.3040   -2.4305 C.3     1  UNL1        0.0091
     10 C          26.8764   22.3532   -2.9339 C.3     1  UNL1        0.0005
     11 C          27.0576   23.6298   -2.1674 C.3     1  UNL1        0.0016
     12 C          26.4735   25.1338   -0.1310 C.3     1  UNL1        0.0603
     13 C          24.9931   25.3709   -0.1760 C.3     1  UNL1        0.0199
     14 C          27.9539   24.8966   -0.0859 C.3     1  UNL1        0.0199
     15 O          26.1423   25.1531    2.8507 O.2     1  UNL1       -0.2749
     16 C          26.4891   26.4200    2.1264 C.2     1  UNL1        0.2255
     17 N          26.6547   26.4104    0.6356 N.am    1  UNL1       -0.2827
     18 C          27.0016   27.6773   -0.0887 C.3     1  UNL1        0.0933
     19 C          27.1828   28.9538    0.6777 C.3     1  UNL1        0.0220
     20 C          27.0172   28.9635    2.1685 C.3     1  UNL1        0.0113
     21 C          26.6704   27.6966    2.8928 C.3     1  UNL1        0.0853
     22 C          22.5440   18.9836    2.0109 C.3     1  UNL1        0.1839
     23 O          21.6928   19.0452    3.2444 O.3     1  UNL1       -0.3775
     24 H          20.9555   19.6583    3.0982 H       1  UNL1        0.2106
     25 C          23.7563   18.1009    1.9795 C.3     1  UNL1        0.1339
     26 N          23.7368   16.8278    1.1863 N.4     1  UNL1        0.2597
     27 H          24.6357   16.3711    1.3405 H       1  UNL1        0.2040
     28 H          23.5281   17.1446    0.2395 H       1  UNL1        0.2040
     29 C          22.6777   15.7981    1.4467 C.3     1  UNL1        0.1298
     30 C          23.0384   14.5023    2.1107 C.ar    1  UNL1        0.0322
     31 C          21.9958   13.4406    2.2994 C.ar    1  UNL1       -0.0029
     32 C          22.3566   12.1449    2.9635 C.ar    1  UNL1       -0.0226
     33 C          23.7599   11.9110    3.4389 C.ar    1  UNL1       -0.0043
     34 C          24.8025   12.9728    3.2502 C.ar    1  UNL1       -0.0004
     35 C          24.4417   14.2684    2.5861 C.ar    1  UNL1        0.0014
     36 C          21.3140   11.0830    3.1522 C.3     1  UNL1        0.0223
     37 C          19.8946   11.3446    2.7437 C.3     1  UNL1        0.0047
     38 C          21.6908    9.7597    3.7494 C.3     1  UNL1        0.0047
     39 C          20.8754   19.5767    0.1099 C.3     1  UNL1        0.0486
     40 C          19.7109   20.4817    0.3835 C.ar    1  UNL1       -0.0204
     41 C          19.2618   21.4622   -0.6590 C.ar    1  UNL1       -0.0042
     42 C          18.0973   22.3671   -0.3854 C.ar    1  UNL1       -0.0003
     43 C          17.3818   22.2916    0.9309 C.ar    1  UNL1       -0.0000
     44 C          17.8309   21.3111    1.9735 C.ar    1  UNL1       -0.0003
     45 C          18.9955   20.4061    1.6997 C.ar    1  UNL1       -0.0042
@<TRIPOS>UNITY_ATOM_ATTR
26 1
charge 1
@<TRIPOS>BOND
     1    15    16    2
     2    16    17   am
     3    17    18    1
     4    18    19    1
     5    19    20    1
     6    20    21    1
     7    17    12    1
     8    12    13    1
     9    12    14    1
    10     6    12    1
    11     6     7    1
    12     7     8    1
    13     8     9    1
    14     9    10    1
    15    10    11    1
    16     8     2    1
    17     2     3    2
    18     2     4   am
    19     4     1    1
    20     1    22    1
    21    22    23    1
    22    22    25    1
    23    25    26    1
    24    26    29    1
    25    29    30    1
    26    30    31   ar
    27    31    32   ar
    28    32    33   ar
    29    33    34   ar
    30    34    35   ar
    31    32    36    1
    32    36    37    1
    33    36    38    1
    34     1    39    1
    35    39    40    1
    36    40    41   ar
    37    41    42   ar
    38    42    43   ar
    39    43    44   ar
    40    44    45   ar
    41    21    16    1
    42    11     6    1
    43    35    30   ar
    44    45    40   ar
    45     4     5    1
    46    23    24    1
    47    26    27    1
    48    26    28    1
